Off Peak 2019 v23/nyiso_off_peak_v23_shunts_as_gens.m
function mpc = nyiso_off_peak_v23_shunts_as_gens
%NYISO_OFF_PEAK_V23_SHUNTS_AS_GENS

%% MATPOWER Case Format : Version 2
mpc.version = '2';

%%-----  Power Flow Data  -----%%
%% system MVA base
mpc.baseMVA = 100;

%% bus data
%	bus_i	type	Pd	Qd	Gs	Bs	area	Vm	Va	baseKV	zone	Vmax	Vmin	lam_P	lam_Q	mu_Vmax	mu_Vmin
mpc.bus = [
	1	1	72.14	0	0	0	66	1.01482699	101.513456	115	66	1.1	0.9	5000.0000	0.0000	0.0000	0.0000;
	2	1	1	0	0	0	70	1.01218525	80.8073187	69	70	1.1	0.9	5000.0000	0.0000	0.0000	0.0000;
	3	1	2.22	0	0	0	70	1.01956718	79.4318405	115	70	1.1	0.9	5000.0000	0.0000	0.0000	0.0000;
	4	1	75.45	0	0	0	68	0.998120871	83.568678	115	68	1.1	0.9	5000.0000	0.0000	0.0000	0.0000;
	5	1	2.22	0	0	0	70	1.01872446	80.2702235	115	70	1.1	0.9	5000.0000	0.0000	0.0000	0.0000;
	6	2	2.22	0	0	0	70	1.02	85.0643773	115	70	1.1	0.9	5000.0000	0.0000	0.0000	0.0000;
	7	1	4.43	0	0	0	70	1.01730337	83.6837609	115	70	1.1	0.9	5000.0000	0.0000	0.0000	0.0000;
	8	1	4.43	0	0	0	70	1.01955645	82.701986	115	70	1.1	0.9	5000.0000	0.0000	0.0000	0.0000;
	9	1	19.56	0	0	0	71	1.01606173	71.4266783	115	71	1.1	0.9	5000.0000	0.0000	0.0000	0.0000;
	10	1	15.09	0	0	0	68	0.990659076	80.5281519	115	68	1.1	0.9	5000.0000	0.0000	0.0000	0.0000;
	11	1	4.43	0	0	0	70	1.01971354	79.4422771	115	70	1.1	0.9	5000.0000	0.0000	0.0000	0.0000;
	12	1	2.22	0	0	0	70	1.01897603	82.7716103	115	70	1.1	0.9	5000.0000	0.0000	0.0000	0.0000;
	13	1	8.87	0	0	0	70	1.01684462	82.2084322	115	70	1.1	0.9	5000.0000	0.0000	0.0000	0.0000;
	14	1	2.73	0	0	0	69	1.01424242	80.8376306	115	69	1.1	0.9	5000.0000	0.0000	0.0000	0.0000;
	15	2	2.73	0	0	0	69	1.02	98.7609349	115	69	1.1	0.9	5000.0000	0.0000	0.0000	0.0000;
	16	1	6.83	0	0	0	69	1.01757519	89.8459809	115	69	1.1	0.9	5000.0000	0.0000	0.0000	0.0000;
	17	2	18.94	0	0	0	75	1.01433581	48.0051403	138	75	1.1	0.9	5000.0000	0.0000	0.0000	0.0000;
	18	2	17.75	0	0	0	75	1.01366057	57.326316	69	75	1.1	0.9	5000.0000	0.0000	0.0000	0.0000;
	19	2	32.9	0	0	0	75	1.02	57.6138164	115	75	1.1	0.9	5000.0000	0.0000	0.0000	0.0000;
	20	1	5.47	0	0	0	69	1.01961311	100.16333	115	69	1.1	0.9	5000.0000	0.0000	0.0000	0.0000;
	21	2	5.47	0	0	0	69	1.02	100.265477	115	69	1.1	0.9	5000.0000	0.0000	0.0000	0.0000;
	22	1	1	0	0	0	70	1.01181833	80.6699612	69	70	1.1	0.9	5000.0000	0.0000	0.0000	0.0000;
	23	1	6.83	0	0	0	69	1.01989333	82.5449159	115	69	1.1	0.9	5000.0000	0.0000	0.0000	0.0000;
	24	2	14.82	0	0	0	67	1.02	101.301165	115	67	1.1	0.9	5000.0000	0.0000	0.0000	0.0000;
	25	1	1.37	0	0	0	69	1.02103566	96.5218486	115	69	1.1	0.9	5000.0000	0.0000	0.0000	0.0000;
	26	2	0	0	0	0	74	1.02	59.3873399	345	74	1.1	0.9	5000.0000	0.0000	0.0000	0.0000;
	27	2	5.93	0	0	0	67	1.00551279	96.2610457	115	67	1.1	0.9	5000.0000	0.0000	0.0000	0.0000;
	28	2	1.37	0	0	0	69	1.02000216	97.1227925	115	69	1.1	0.9	5000.0000	0.0000	0.0000	0.0000;
	29	2	11.85	0	0	0	67	1.01444174	92.4755984	115	67	1.1	0.9	5000.0000	0.0000	0.0000	0.0000;
	30	2	5.93	0	0	0	67	1.02	92.2502575	115	67	1.1	0.9	5000.0000	0.0000	0.0000	0.0000;
	31	2	2.22	0	0	0	70	1.02	83.2502889	115	70	1.1	0.9	5000.0000	0.0000	0.0000	0.0000;
	32	2	2.22	0	0	0	70	1.02000526	83.1926807	115	70	1.1	0.9	5000.0000	0.0000	0.0000	0.0000;
	33	2	3.48	0	0	0	65	1.02010532	97.7734494	115	65	1.1	0.9	5000.0000	0.0000	0.0000	0.0000;
	34	2	5.93	0	0	0	67	1.01800389	105.863872	115	67	1.1	0.9	5000.0000	0.0000	0.0000	0.0000;
	35	1	35.91	0	0	0	68	1.00750021	82.9309135	115	68	1.1	0.9	5000.0000	0.0000	0.0000	0.0000;
	36	1	35.91	0	0	0	68	1.00736695	82.9561469	115	68	1.1	0.9	5000.0000	0.0000	0.0000	0.0000;
	37	2	5.21	0	0	0	65	1.02	105.372797	115	65	1.1	0.9	5000.0000	0.0000	0.0000	0.0000;
	38	2	3.48	0	0	0	65	1.02	96.3141603	115	65	1.1	0.9	5000.0000	0.0000	0.0000	0.0000;
	39	2	0	0	0	0	65	1.02	99.6392031	230	65	1.1	0.9	5000.0000	0.0000	0.0000	0.0000;
	40	1	1.37	0	0	0	69	1.01958349	95.0441725	115	69	1.1	0.9	5000.0000	0.0000	0.0000	0.0000;
	41	2	3.48	0	0	0	65	1.01416148	102.287182	115	65	1.1	0.9	5000.0000	0.0000	0.0000	0.0000;
	42	1	12.17	0	0	0	65	1.02423151	95.6413534	115	65	1.1	0.9	5000.0000	0.0000	0.0000	0.0000;
	43	1	3.48	0	0	0	65	1.02349273	95.366425	115	65	1.1	0.9	5000.0000	0.0000	0.0000	0.0000;
	44	1	1.74	0	0	0	65	1.0234988	95.3717693	115	65	1.1	0.9	5000.0000	0.0000	0.0000	0.0000;
	45	1	5.21	0	0	0	65	1.02350441	95.3731229	115	65	1.1	0.9	5000.0000	0.0000	0.0000	0.0000;
	46	1	3.48	0	0	0	65	1.02419809	95.6328694	115	65	1.1	0.9	5000.0000	0.0000	0.0000	0.0000;
	47	1	1.74	0	0	0	65	1.02557425	96.6368687	115	65	1.1	0.9	5000.0000	0.0000	0.0000	0.0000;
	48	1	6.95	0	0	0	65	1.02311093	96.939407	115	65	1.1	0.9	5000.0000	0.0000	0.0000	0.0000;
	49	1	2.73	0	0	0	69	1.01898804	84.2722433	115	69	1.1	0.9	5000.0000	0.0000	0.0000	0.0000;
	50	1	2.73	0	0	0	69	1.01518636	98.6033152	115	69	1.1	0.9	5000.0000	0.0000	0.0000	0.0000;
	51	1	2.96	0	0	0	67	1.01938512	92.7748833	115	67	1.1	0.9	5000.0000	0.0000	0.0000	0.0000;
	52	2	2.96	0	0	0	67	1.02	92.9050722	115	67	1.1	0.9	5000.0000	0.0000	0.0000	0.0000;
	53	2	5.93	0	0	0	67	1.02	94.1458587	115	67	1.1	0.9	5000.0000	0.0000	0.0000	0.0000;
	54	1	0	0	0	0	67	1.02685017	93.9803893	230	67	1.1	0.9	5000.0000	0.0000	0.0000	0.0000;
	55	1	8.89	0	0	0	67	1.01919516	90.5717541	115	67	1.1	0.9	5000.0000	0.0000	0.0000	0.0000;
	56	1	5.93	0	0	0	67	1.01904378	90.1697764	115	67	1.1	0.9	5000.0000	0.0000	0.0000	0.0000;
	57	1	5.93	0	0	0	67	1.01923329	89.7983411	115	67	1.1	0.9	5000.0000	0.0000	0.0000	0.0000;
	58	1	4.44	0	0	0	67	1.01880673	105.729028	115	67	1.1	0.9	5000.0000	0.0000	0.0000	0.0000;
	59	1	9.57	0	0	0	69	1.02167689	96.4688382	115	69	1.1	0.9	5000.0000	0.0000	0.0000	0.0000;
	60	2	1.23	0	0	0	69	1.02	80.2711239	69	69	1.1	0.9	5000.0000	0.0000	0.0000	0.0000;
	61	1	8.89	0	0	0	67	1.01609736	92.6414715	115	67	1.1	0.9	5000.0000	0.0000	0.0000	0.0000;
	62	1	0	0	0	0	70	1.02001	83.7371737	345	70	1.1	0.9	5000.0000	0.0000	0.0000	0.0000;
	63	2	0	0	0	0	70	1.02	83.7446453	345	70	1.1	0.9	5000.0000	0.0000	0.0000	0.0000;
	64	1	1.37	0	0	0	69	1.01298449	96.7736858	115	69	1.1	0.9	5000.0000	0.0000	0.0000	0.0000;
	65	1	3.48	0	0	0	65	1.0217944	97.1542312	115	65	1.1	0.9	5000.0000	0.0000	0.0000	0.0000;
	66	1	3.48	0	0	0	65	1.01924667	95.1499744	115	65	1.1	0.9	5000.0000	0.0000	0.0000	0.0000;
	67	1	1.74	0	0	0	65	1.01935906	95.204588	115	65	1.1	0.9	5000.0000	0.0000	0.0000	0.0000;
	68	1	3.48	0	0	0	65	1.01889464	97.242033	115	65	1.1	0.9	5000.0000	0.0000	0.0000	0.0000;
	69	2	8.69	0	0	0	65	1.02	95.2020789	115	65	1.1	0.9	5000.0000	0.0000	0.0000	0.0000;
	70	1	3.48	0	0	0	65	1.01996923	95.1684406	115	65	1.1	0.9	5000.0000	0.0000	0.0000	0.0000;
	71	1	5.21	0	0	0	65	1.0234466	97.1765266	115	65	1.1	0.9	5000.0000	0.0000	0.0000	0.0000;
	72	1	1.74	0	0	0	65	1.02070922	97.1456993	115	65	1.1	0.9	5000.0000	0.0000	0.0000	0.0000;
	73	1	3.48	0	0	0	65	1.0206356	97.1304457	115	65	1.1	0.9	5000.0000	0.0000	0.0000	0.0000;
	74	1	6.95	0	0	0	65	1.0203498	97.073815	115	65	1.1	0.9	5000.0000	0.0000	0.0000	0.0000;
	75	1	1.74	0	0	0	65	1.02005824	97.0156775	115	65	1.1	0.9	5000.0000	0.0000	0.0000	0.0000;
	76	1	3.48	0	0	0	65	1.02005246	97.0142904	115	65	1.1	0.9	5000.0000	0.0000	0.0000	0.0000;
	77	1	8.69	0	0	0	65	1.02055087	96.1629319	115	65	1.1	0.9	5000.0000	0.0000	0.0000	0.0000;
	78	1	3.48	0	0	0	65	1.02221228	96.7043009	115	65	1.1	0.9	5000.0000	0.0000	0.0000	0.0000;
	79	2	0	0	0	0	74	1.02001776	59.2014317	345	74	1.1	0.9	5000.0000	0.0000	0.0000	0.0000;
	80	2	2.73	0	0	0	69	1.01966838	97.320935	115	69	1.1	0.9	5000.0000	0.0000	0.0000	0.0000;
	81	2	14.82	0	0	0	67	1.0221	87.7495167	115	67	1.1	0.9	5000.0000	0.0000	0.0000	0.0000;
	82	2	1.37	0	0	0	69	1.02	86.5527454	115	69	1.1	0.9	5000.0000	0.0000	0.0000	0.0000;
	83	1	4.1	0	0	0	69	1.02101739	96.5566972	115	69	1.1	0.9	5000.0000	0.0000	0.0000	0.0000;
	84	2	2.22	0	0	0	70	1.02	83.3703088	115	70	1.1	0.9	5000.0000	0.0000	0.0000	0.0000;
	85	1	1.74	0	0	0	65	1.02049964	94.7595092	115	65	1.1	0.9	5000.0000	0.0000	0.0000	0.0000;
	86	1	3.48	0	0	0	65	1.0205453	96.9684306	115	65	1.1	0.9	5000.0000	0.0000	0.0000	0.0000;
	87	1	5.21	0	0	0	65	1.01987869	97.000319	115	65	1.1	0.9	5000.0000	0.0000	0.0000	0.0000;
	88	1	3.48	0	0	0	65	1.01963597	96.8291672	115	65	1.1	0.9	5000.0000	0.0000	0.0000	0.0000;
	89	1	1.74	0	0	0	65	1.01957917	96.7795888	115	65	1.1	0.9	5000.0000	0.0000	0.0000	0.0000;
	90	1	3.48	0	0	0	65	1.01956984	96.6921138	115	65	1.1	0.9	5000.0000	0.0000	0.0000	0.0000;
	91	1	3.48	0	0	0	65	1.01962669	96.5937226	115	65	1.1	0.9	5000.0000	0.0000	0.0000	0.0000;
	92	1	9.02	0	0	0	66	1.01918878	93.4499158	115	66	1.1	0.9	5000.0000	0.0000	0.0000	0.0000;
	93	1	9.02	0	0	0	66	1.0198706	94.0714388	115	66	1.1	0.9	5000.0000	0.0000	0.0000	0.0000;
	94	1	9.02	0	0	0	66	1.01512344	95.6908933	115	66	1.1	0.9	5000.0000	0.0000	0.0000	0.0000;
	95	2	4.51	0	0	0	66	1.01506485	95.6765113	115	66	1.1	0.9	5000.0000	0.0000	0.0000	0.0000;
	96	1	4.51	0	0	0	66	1.01560528	95.5577394	115	66	1.1	0.9	5000.0000	0.0000	0.0000	0.0000;
	97	1	9.02	0	0	0	66	1.01581618	95.5861486	115	66	1.1	0.9	5000.0000	0.0000	0.0000	0.0000;
	98	1	9.02	0	0	0	66	1.01808144	92.4503823	115	66	1.1	0.9	5000.0000	0.0000	0.0000	0.0000;
	99	1	9.02	0	0	0	66	1.01739033	92.3369597	115	66	1.1	0.9	5000.0000	0.0000	0.0000	0.0000;
	100	1	4.51	0	0	0	66	1.01703393	92.4771817	115	66	1.1	0.9	5000.0000	0.0000	0.0000	0.0000;
	101	1	3.48	0	0	0	65	1.01020665	101.85251	115	65	1.1	0.9	5000.0000	0.0000	0.0000	0.0000;
	102	1	3.48	0	0	0	65	1.01021637	101.85801	115	65	1.1	0.9	5000.0000	0.0000	0.0000	0.0000;
	103	1	1.74	0	0	0	65	1.01050108	101.99071	115	65	1.1	0.9	5000.0000	0.0000	0.0000	0.0000;
	104	1	3.48	0	0	0	65	1.01503416	103.043444	115	65	1.1	0.9	5000.0000	0.0000	0.0000	0.0000;
	105	1	13.91	0	0	0	65	1.01480703	102.572535	115	65	1.1	0.9	5000.0000	0.0000	0.0000	0.0000;
	106	1	3.48	0	0	0	65	1.01488153	102.546028	115	65	1.1	0.9	5000.0000	0.0000	0.0000	0.0000;
	107	1	8.69	0	0	0	65	1.01527178	102.597676	115	65	1.1	0.9	5000.0000	0.0000	0.0000	0.0000;
	108	1	5.93	0	0	0	67	1.02245113	89.8327731	115	67	1.1	0.9	5000.0000	0.0000	0.0000	0.0000;
	109	1	5.93	0	0	0	67	1.02145333	90.1146091	115	67	1.1	0.9	5000.0000	0.0000	0.0000	0.0000;
	110	1	8.89	0	0	0	67	1.02052566	88.2759143	115	67	1.1	0.9	5000.0000	0.0000	0.0000	0.0000;
	111	1	5.93	0	0	0	67	1.01933151	89.5126622	115	67	1.1	0.9	5000.0000	0.0000	0.0000	0.0000;
	112	1	5.93	0	0	0	67	1.01973987	87.258414	115	67	1.1	0.9	5000.0000	0.0000	0.0000	0.0000;
	113	1	5.93	0	0	0	67	1.01917277	87.2238645	115	67	1.1	0.9	5000.0000	0.0000	0.0000	0.0000;
	114	1	5.93	0	0	0	67	1.01936258	87.3856987	115	67	1.1	0.9	5000.0000	0.0000	0.0000	0.0000;
	115	1	5.93	0	0	0	67	1.02162256	86.7109305	115	67	1.1	0.9	5000.0000	0.0000	0.0000	0.0000;
	116	2	5.93	0	0	0	67	1.02228965	87.6229106	115	67	1.1	0.9	5000.0000	0.0000	0.0000	0.0000;
	117	1	8.89	0	0	0	67	1.02149507	87.4778501	115	67	1.1	0.9	5000.0000	0.0000	0.0000	0.0000;
	118	1	5.93	0	0	0	67	1.02069804	87.1084109	115	67	1.1	0.9	5000.0000	0.0000	0.0000	0.0000;
	119	1	5.93	0	0	0	67	1.02077961	87.1068897	115	67	1.1	0.9	5000.0000	0.0000	0.0000	0.0000;
	120	1	5.93	0	0	0	67	1.02111612	87.2009788	115	67	1.1	0.9	5000.0000	0.0000	0.0000	0.0000;
	121	1	5.93	0	0	0	67	1.02106305	87.31851	115	67	1.1	0.9	5000.0000	0.0000	0.0000	0.0000;
	122	1	5.93	0	0	0	67	1.0215521	87.5134237	115	67	1.1	0.9	5000.0000	0.0000	0.0000	0.0000;
	123	1	5.93	0	0	0	67	1.02092475	87.2563394	115	67	1.1	0.9	5000.0000	0.0000	0.0000	0.0000;
	124	1	17.78	0	0	0	67	1.01899495	90.4404093	115	67	1.1	0.9	5000.0000	0.0000	0.0000	0.0000;
	125	2	1.37	0	0	0	69	1.01889834	103.24788	115	69	1.1	0.9	5000.0000	0.0000	0.0000	0.0000;
	126	1	1.37	0	0	0	69	1.01892258	103.228036	115	69	1.1	0.9	5000.0000	0.0000	0.0000	0.0000;
	127	2	22.17	0	0	0	70	1.02	86.0589307	115	70	1.1	0.9	5000.0000	0.0000	0.0000	0.0000;
	128	2	27.05	0	0	0	66	1.02	109.265224	115	66	1.1	0.9	5000.0000	0.0000	0.0000	0.0000;
	129	1	13.53	0	0	0	66	1.02074268	100.27913	115	66	1.1	0.9	5000.0000	0.0000	0.0000	0.0000;
	130	1	4.51	0	0	0	66	1.01786105	100.827205	115	66	1.1	0.9	5000.0000	0.0000	0.0000	0.0000;
	131	1	17.78	0	0	0	67	1.01945431	92.793686	115	67	1.1	0.9	5000.0000	0.0000	0.0000	0.0000;
	132	1	0	0	0	0	67	1.02136981	95.0557764	230	67	1.1	0.9	5000.0000	0.0000	0.0000	0.0000;
	133	1	8.89	0	0	0	67	1.01975513	89.5775755	115	67	1.1	0.9	5000.0000	0.0000	0.0000	0.0000;
	134	1	8.69	0	0	0	65	1.0174948	97.6197142	115	65	1.1	0.9	5000.0000	0.0000	0.0000	0.0000;
	135	1	3.48	0	0	0	65	1.01880934	98.2942521	115	65	1.1	0.9	5000.0000	0.0000	0.0000	0.0000;
	136	1	3.48	0	0	0	65	1.01790861	99.3976289	115	65	1.1	0.9	5000.0000	0.0000	0.0000	0.0000;
	137	1	3.48	0	0	0	65	1.02137322	100.534134	115	65	1.1	0.9	5000.0000	0.0000	0.0000	0.0000;
	138	2	0	0	0	0	65	1.02	100.154496	230	65	1.1	0.9	5000.0000	0.0000	0.0000	0.0000;
	139	1	5.21	0	0	0	65	1.01899105	97.2409162	115	65	1.1	0.9	5000.0000	0.0000	0.0000	0.0000;
	140	1	7.41	0	0	0	65	1.01902315	97.2430587	115	65	1.1	0.9	5000.0000	0.0000	0.0000	0.0000;
	141	1	3.48	0	0	0	65	1.01765659	97.870788	115	65	1.1	0.9	5000.0000	0.0000	0.0000	0.0000;
	142	1	5.21	0	0	0	65	1.01743143	98.0176943	115	65	1.1	0.9	5000.0000	0.0000	0.0000	0.0000;
	143	1	3.48	0	0	0	65	1.02373038	100.69287	115	65	1.1	0.9	5000.0000	0.0000	0.0000	0.0000;
	144	1	3.48	0	0	0	65	1.0213332	100.739108	115	65	1.1	0.9	5000.0000	0.0000	0.0000	0.0000;
	145	1	5.21	0	0	0	65	1.02018607	100.769362	115	65	1.1	0.9	5000.0000	0.0000	0.0000	0.0000;
	146	1	1.74	0	0	0	65	1.01994239	100.692071	115	65	1.1	0.9	5000.0000	0.0000	0.0000	0.0000;
	147	1	2.96	0	0	0	67	1.01778643	90.6514222	115	67	1.1	0.9	5000.0000	0.0000	0.0000	0.0000;
	148	1	2.96	0	0	0	67	1.01868475	91.368524	115	67	1.1	0.9	5000.0000	0.0000	0.0000	0.0000;
	149	1	8.89	0	0	0	67	1.01936485	91.0149766	115	67	1.1	0.9	5000.0000	0.0000	0.0000	0.0000;
	150	2	5.93	0	0	0	67	1.01997876	91.0418783	115	67	1.1	0.9	5000.0000	0.0000	0.0000	0.0000;
	151	1	2.96	0	0	0	67	1.01999769	91.0375955	115	67	1.1	0.9	5000.0000	0.0000	0.0000	0.0000;
	152	1	5.93	0	0	0	67	1.01548296	92.7013804	115	67	1.1	0.9	5000.0000	0.0000	0.0000	0.0000;
	153	1	2.96	0	0	0	67	1.0144189	90.432245	115	67	1.1	0.9	5000.0000	0.0000	0.0000	0.0000;
	154	1	8.89	0	0	0	67	1.01308015	91.5468487	115	67	1.1	0.9	5000.0000	0.0000	0.0000	0.0000;
	155	1	2.96	0	0	0	67	1.0128899	91.5045133	115	67	1.1	0.9	5000.0000	0.0000	0.0000	0.0000;
	156	1	5.93	0	0	0	67	1.01257511	91.3939891	115	67	1.1	0.9	5000.0000	0.0000	0.0000	0.0000;
	157	1	2.96	0	0	0	67	1.01256593	91.3881792	115	67	1.1	0.9	5000.0000	0.0000	0.0000	0.0000;
	158	1	2.96	0	0	0	67	1.01266832	91.4097235	115	67	1.1	0.9	5000.0000	0.0000	0.0000	0.0000;
	159	1	3.48	0	0	0	65	1.02310528	100.551508	115	65	1.1	0.9	5000.0000	0.0000	0.0000	0.0000;
	160	1	1.74	0	0	0	65	1.0208149	100.57687	115	65	1.1	0.9	5000.0000	0.0000	0.0000	0.0000;
	161	2	3.48	0	0	0	65	1.02	99.5066744	115	65	1.1	0.9	5000.0000	0.0000	0.0000	0.0000;
	162	1	6.95	0	0	0	65	1.01988077	99.5047874	115	65	1.1	0.9	5000.0000	0.0000	0.0000	0.0000;
	163	1	8.69	0	0	0	65	1.0195276	99.5122671	115	65	1.1	0.9	5000.0000	0.0000	0.0000	0.0000;
	164	1	1.74	0	0	0	65	1.01952457	99.5115375	115	65	1.1	0.9	5000.0000	0.0000	0.0000	0.0000;
	165	1	1.74	0	0	0	65	1.0176621	100.823253	115	65	1.1	0.9	5000.0000	0.0000	0.0000	0.0000;
	166	1	1.74	0	0	0	65	1.01781992	100.863363	115	65	1.1	0.9	5000.0000	0.0000	0.0000	0.0000;
	167	1	5.93	0	0	0	67	1.00704767	97.0360038	115	67	1.1	0.9	5000.0000	0.0000	0.0000	0.0000;
	168	1	1.37	0	0	0	69	1.00662173	93.4134544	115	69	1.1	0.9	5000.0000	0.0000	0.0000	0.0000;
	169	1	5.93	0	0	0	67	1.00614077	96.434709	115	67	1.1	0.9	5000.0000	0.0000	0.0000	0.0000;
	170	1	5.93	0	0	0	67	1.00589351	96.2455564	115	67	1.1	0.9	5000.0000	0.0000	0.0000	0.0000;
	171	1	23.7	0	0	0	67	1.00594929	96.2529698	115	67	1.1	0.9	5000.0000	0.0000	0.0000	0.0000;
	172	1	5.93	0	0	0	67	1.00650534	96.9158741	115	67	1.1	0.9	5000.0000	0.0000	0.0000	0.0000;
	173	1	8.89	0	0	0	67	1.00784543	97.7925278	115	67	1.1	0.9	5000.0000	0.0000	0.0000	0.0000;
	174	1	5.93	0	0	0	67	1.00709105	97.5884105	115	67	1.1	0.9	5000.0000	0.0000	0.0000	0.0000;
	175	1	5.93	0	0	0	67	1.0069609	97.589605	115	67	1.1	0.9	5000.0000	0.0000	0.0000	0.0000;
	176	1	5.93	0	0	0	67	1.00616065	97.4295026	115	67	1.1	0.9	5000.0000	0.0000	0.0000	0.0000;
	177	1	2.96	0	0	0	67	1.00629415	97.4674923	115	67	1.1	0.9	5000.0000	0.0000	0.0000	0.0000;
	178	2	8.89	0	0	0	67	1.00622108	97.4458157	115	67	1.1	0.9	5000.0000	0.0000	0.0000	0.0000;
	179	1	5.93	0	0	0	67	1.00631331	97.4662267	115	67	1.1	0.9	5000.0000	0.0000	0.0000	0.0000;
	180	1	5.93	0	0	0	67	1.00731714	97.6917976	115	67	1.1	0.9	5000.0000	0.0000	0.0000	0.0000;
	181	1	5.93	0	0	0	67	1.00618745	97.437387	115	67	1.1	0.9	5000.0000	0.0000	0.0000	0.0000;
	182	1	5.93	0	0	0	67	1.00521534	99.3526447	115	67	1.1	0.9	5000.0000	0.0000	0.0000	0.0000;
	183	1	5.93	0	0	0	67	1.00524042	99.3588377	115	67	1.1	0.9	5000.0000	0.0000	0.0000	0.0000;
	184	1	5.93	0	0	0	67	1.00853602	97.9851455	115	67	1.1	0.9	5000.0000	0.0000	0.0000	0.0000;
	185	1	5.93	0	0	0	67	1.00578627	99.1595263	115	67	1.1	0.9	5000.0000	0.0000	0.0000	0.0000;
	186	1	4.1	0	0	0	69	1.02185077	81.8037361	115	69	1.1	0.9	5000.0000	0.0000	0.0000	0.0000;
	187	1	2.73	0	0	0	69	1.02082614	82.7090372	115	69	1.1	0.9	5000.0000	0.0000	0.0000	0.0000;
	188	1	2.73	0	0	0	69	0.999621517	77.7946158	115	69	1.1	0.9	5000.0000	0.0000	0.0000	0.0000;
	189	1	1.37	0	0	0	69	1.00473075	79.5727937	115	69	1.1	0.9	5000.0000	0.0000	0.0000	0.0000;
	190	1	30.18	0	0	0	68	1.00446876	87.9637201	115	68	1.1	0.9	5000.0000	0.0000	0.0000	0.0000;
	191	1	30.18	0	0	0	68	0.997489292	81.2328869	115	68	1.1	0.9	5000.0000	0.0000	0.0000	0.0000;
	192	1	45.27	0	0	0	68	1.00316064	83.8827521	115	68	1.1	0.9	5000.0000	0.0000	0.0000	0.0000;
	193	2	60.36	0	0	0	68	0.997861598	83.5068872	115	68	1.1	0.9	5000.0000	0.0000	0.0000	0.0000;
	194	2	13.3	0	0	0	70	1.0175002	82.2733735	115	70	1.1	0.9	5000.0000	0.0000	0.0000	0.0000;
	195	1	4.43	0	0	0	70	1.0174706	82.2656825	115	70	1.1	0.9	5000.0000	0.0000	0.0000	0.0000;
	196	1	4.43	0	0	0	70	1.0170371	82.2208846	115	70	1.1	0.9	5000.0000	0.0000	0.0000	0.0000;
	197	1	9.02	0	0	0	66	1.02018459	102.804645	115	66	1.1	0.9	5000.0000	0.0000	0.0000	0.0000;
	198	1	9.02	0	0	0	66	1.00886031	100.892275	115	66	1.1	0.9	5000.0000	0.0000	0.0000	0.0000;
	199	2	9.02	0	0	0	66	1.01455544	101.447814	115	66	1.1	0.9	5000.0000	0.0000	0.0000	0.0000;
	200	1	13.53	0	0	0	66	1.01173899	102.04048	115	66	1.1	0.9	5000.0000	0.0000	0.0000	0.0000;
...
];

%% generator data
%	bus	Pg	Qg	Qmax	Qmin	Vg	mBase	status	Pmax	Pmin	Pc1	Pc2	Qc1min	Qc1max	Qc2min	Qc2max	ramp_agc	ramp_10	ramp_30	ramp_q	apf	mu_Pmax	mu_Pmin	mu_Qmax	mu_Qmin
mpc.gen = [
	6	2.760714	-0.38124807	1.8	-1.5	1.02	100	1	2.8	1	0	0	0	0	0	0	0	5000	15000	0	0	0.0000	0.0000	0.0000	0.0000;
	6	2.760714	-0.38124807	1.8	-1.5	1.02	100	1	2.8	1	0	0	0	0	0	0	0	5000	15000	0	0	0.0000	0.0000	0.0000	0.0000;
	6	2.957908	-0.445641775	2	-1.7	1.02	100	1	3	1	0	0	0	0	0	0	0	5000	15000	0	0	0.0000	0.0000	0.0000	0.0000;
	6	2.957908	-0.445641775	2	-1.7	1.02	100	1	3	1	0	0	0	0	0	0	0	5000	15000	0	0	0.0000	0.0000	0.0000	0.0000;
	15	7.887755	-2.75829534	5.2	-4.4	1.02	100	1	8	7	0	0	0	0	0	0	0	5000	15000	0	0	0.0000	0.0000	0.0000	0.0000;
	15	7.887755	-2.75829534	5.2	-4.4	1.02	100	1	8	7	0	0	0	0	0	0	0	5000	15000	0	0	0.0000	0.0000	0.0000	0.0000;
	17	0	0	11.7	-9.9	1.01	100	0	18.000001	10.5	0	0	0	0	0	0	0	101	303	0	0	0.0000	0.0000	0.0000	0.0000;
	17	0	0	11.7	-9.9	1.01	100	0	18.000001	11.4	0	0	0	0	0	0	0	102.5	307.5	0	0	0.0000	0.0000	0.0000	0.0000;
	17	0	0	11.7	-9.9	1.01	100	0	18.000001	11	0	0	0	0	0	0	0	100.5	301.5	0	0	0.0000	0.0000	0.0000	0.0000;
	17	0	0	11.7	-9.9	1.01	100	0	18.000001	11.2	0	0	0	0	0	0	0	99.5	298.5	0	0	0.0000	0.0000	0.0000	0.0000;
	17	0	0	11.7	-9.9	1.01	100	0	18.000001	11.4	0	0	0	0	0	0	0	76	228	0	0	0.0000	0.0000	0.0000	0.0000;
	17	0	0	11.7	-9.9	1.01	100	0	18.000001	10.7	0	0	0	0	0	0	0	102.5	307.5	0	0	0.0000	0.0000	0.0000	0.0000;
	17	0	0	11.7	-9.9	1.01	100	0	18.000001	9	0	0	0	0	0	0	0	102	306	0	0	0.0000	0.0000	0.0000	0.0000;
	17	0	0	27.200001	-23	1.01	100	0	41.800001	29.800001	0	0	0	0	0	0	0	246	738	0	0	0.0000	0.0000	0.0000	0.0000;
	17	0	0	27.200001	-23	1.01	100	0	41.800001	30.000001	0	0	0	0	0	0	0	250	750	0	0	0.0000	0.0000	0.0000	0.0000;
	17	0	0	27.200001	-23	1.01	100	0	41.800001	30.000001	0	0	0	0	0	0	0	252.5	757.5	0	0	0.0000	0.0000	0.0000	0.0000;
	17	0	0	27.200001	-23	1.01	100	0	41.800001	30.000001	0	0	0	0	0	0	0	243.5	730.5	0	0	0.0000	0.0000	0.0000	0.0000;
	17	0	0	122.2	-103.400004	1.01	100	0	188	15.000001	0	0	0	0	0	0	0	79.8	239.4	0	0	0.0000	0.0000	0.0000	0.0000;
	17	0	0	122.2	-103.400004	1.01	100	0	188	15.000001	0	0	0	0	0	0	0	76.2	228.6	0	0	0.0000	0.0000	0.0000	0.0000;
	18	0	0	10.4	-8.8	1.01	100	0	16	10	0	0	0	0	0	0	0	88	264	0	0	0.0000	0.0000	0.0000	0.0000;
	18	0	0	34.5	-29.2	1.01	100	0	52.999997	37	0	0	0	0	0	0	0	235	705	0	0	0.0000	0.0000	0.0000	0.0000;
	18	0	0	34.5	-29.2	1.01	100	0	52.999997	37	0	0	0	0	0	0	0	235	705	0	0	0.0000	0.0000	0.0000	0.0000;
	18	0	0	35.800001	-30.3	1.01	100	0	55.000001	40.000001	0	0	0	0	0	0	0	275.5	826.5	0	0	0.0000	0.0000	0.0000	0.0000;
	18	0	0	35.800001	-30.3	1.01	100	0	55.000001	44.100001	0	0	0	0	0	0	0	343	1029	0	0	0.0000	0.0000	0.0000	0.0000;
	19	0	0	10.4	-8.8	1.02	100	0	16	10.6	0	0	0	0	0	0	0	79	237	0	0	0.0000	0.0000	0.0000	0.0000;
	19	0	0	251.600003	-212.899995	1.02	100	0	386.999989	40.000001	0	0	0	0	0	0	0	159.6	478.8	0	0	0.0000	0.0000	0.0000	0.0000;
	19	387	21.4088379	251.600003	-212.899995	1.02	100	1	386.999989	30.000001	0	0	0	0	0	0	0	157.68	473.04	0	0	0.0000	0.0000	0.0000	0.0000;
	19	386.999989	21.4088379	251.600003	-212.899995	1.02	100	1	386.999989	40.000001	0	0	0	0	0	0	0	158.6	475.8	0	0	0.0000	0.0000	0.0000	0.0000;
	19	386.999989	21.4088379	251.600003	-212.899995	1.02	100	1	386.999989	40.000001	0	0	0	0	0	0	0	158.48	475.44	0	0	0.0000	0.0000	0.0000	0.0000;
	19	0	87.7608408	9900	-9900	1.02	100	1	200	0	0	0	0	0	0	0	0	0	0	0	0	0.0000	0.0000	0.0000	0.0000;
	21	10.845663	3.7531662	7.2	-6.1	1.02	100	1	11	0.2	0	0	0	0	0	0	0	5000	15000	0	0	0.0000	0.0000	0.0000	0.0000;
	21	11.831632	4.06808972	7.8	-6.6	1.02	100	1	12	0.2	0	0	0	0	0	0	0	5000	15000	0	0	0.0000	0.0000	0.0000	0.0000;
	21	12.817602	4.43118115	8.5	-7.2	1.02	100	1	13	0.2	0	0	0	0	0	0	0	5000	15000	0	0	0.0000	0.0000	0.0000	0.0000;
	24	8.873725	4.75406667	5.9	-5	1.02	100	1	9	3	0	0	0	0	0	0	0	5000	15000	0	0	0.0000	0.0000	0.0000	0.0000;
	24	8.873725	4.75406667	5.9	-5	1.02	100	1	9	3	0	0	0	0	0	0	0	5000	15000	0	0	0.0000	0.0000	0.0000	0.0000;
	24	8.873725	4.75406667	5.9	-5	1.02	100	1	9	3	0	0	0	0	0	0	0	5000	15000	0	0	0.0000	0.0000	0.0000	0.0000;
	24	8.873725	4.75406667	5.9	-5	1.02	100	1	9	3	0	0	0	0	0	0	0	5000	15000	0	0	0.0000	0.0000	0.0000	0.0000;
	26	594.999981	25.616583	446.25001	-416.499996	1.02	100	1	594.999981	320.000005	0	0	0	0	0	0	0	900	2700	0	0	0.0000	0.0000	0.0000	0.0000;
	26	650	27.9844854	487.5	-455.000019	1.02	100	1	650	320.000005	0	0	0	0	0	0	0	900	2700	0	0	0.0000	0.0000	0.0000	0.0000;
	27	0	0	91.949999	-85.820001	1.02	100	0	122.599995	41.999999	0	0	0	0	0	0	0	890	2670	0	0	0.0000	0.0000	0.0000	0.0000;
	28	0	0	47.174999	-44.029999	1.02	100	0	62.900001	34.999999	0	0	0	0	0	0	0	560	1680	0	0	0.0000	0.0000	0.0000	0.0000;
	29	0	0	72.799999	-61.6	1.02	100	0	112	31.999999	0	0	0	0	0	0	0	42.52	127.56	0	0	0.0000	0.0000	0.0000	0.0000;
	30	3	0.0688186513	2.7	-2.3	1.02	100	1	4.1	0	0	0	0	0	0	0	0	0	0	0	0	0.0000	0.0000	0.0000	0.0000;
	30	6.286968	1.00528801	36.000001	-30.500001	1.02	100	1	55.400002	0	0	0	0	0	0	0	0	0	0	0	0	0.0000	0.0000	0.0000	0.0000;
	31	0.985969	-0.228994883	0.7	-0.6	1.02	100	1	1	0.2	0	0	0	0	0	0	0	5000	15000	0	0	0.0000	0.0000	0.0000	0.0000;
	31	0.985969	-0.228994883	0.7	-0.6	1.02	100	1	1	0.2	0	0	0	0	0	0	0	5000	15000	0	0	0.0000	0.0000	0.0000	0.0000;
	31	2.563521	-0.51529549	1.7	-1.4	1.02	100	1	2.6	0.9	0	0	0	0	0	0	0	5000	15000	0	0	0.0000	0.0000	0.0000	0.0000;
	31	2.563521	-0.51529549	1.7	-1.4	1.02	100	1	2.6	0.9	0	0	0	0	0	0	0	5000	15000	0	0	0.0000	0.0000	0.0000	0.0000;
	31	2.563521	-0.51529549	1.7	-1.4	1.02	100	1	2.6	2.3	0	0	0	0	0	0	0	5000	15000	0	0	0.0000	0.0000	0.0000	0.0000;
	31	24.254847	-5.08103845	16	-13.500001	1.02	100	1	24.600001	6	0	0	0	0	0	0	0	5000	15000	0	0	0.0000	0.0000	0.0000	0.0000;
	31	24.254847	-5.08103845	16	-13.500001	1.02	100	1	24.600001	6	0	0	0	0	0	0	0	5000	15000	0	0	0.0000	0.0000	0.0000	0.0000;
	32	0	0	110.249996	-102.900004	1.02	100	0	147.000003	113	0	0	0	0	0	0	0	650	1950	0	0	0.0000	0.0000	0.0000	0.0000;
	33	0	0	42.449999	-39.62	1.02	100	0	56.599998	44	0	0	0	0	0	0	0	540	1620	0	0	0.0000	0.0000	0.0000	0.0000;
	34	0	0	43.05	-40.180001	1.02	100	0	57.4	44.499999	0	0	0	0	0	0	0	500	1500	0	0	0.0000	0.0000	0.0000	0.0000;
	35	3.155102	2.1	2.1	-1.8	1.02	100	1	3.2	0	0	0	0	0	0	0	0	5000	15000	0	0	0.0000	0.0000	0.0000	0.0000;
	35	3.155102	2.1	2.1	-1.8	1.02	100	1	3.2	0	0	0	0	0	0	0	0	5000	15000	0	0	0.0000	0.0000	0.0000	0.0000;
	35	3.943877	2.6	2.6	-2.2	1.02	100	1	4	0	0	0	0	0	0	0	0	5000	15000	0	0	0.0000	0.0000	0.0000	0.0000;
	35	3.943877	2.6	2.6	-2.2	1.02	100	1	4	0	0	0	0	0	0	0	0	5000	15000	0	0	0.0000	0.0000	0.0000	0.0000;
	35	5.915816	3.9	3.9	-3.3	1.02	100	1	6	0	0	0	0	0	0	0	0	5000	15000	0	0	0.0000	0.0000	0.0000	0.0000;
	35	6.901786	4.6	4.6	-3.9	1.02	100	1	7	0	0	0	0	0	0	0	0	5000	15000	0	0	0.0000	0.0000	0.0000	0.0000;
	37	198	-0.173593898	165.974998	-154.910004	1.02	100	1	221.300006	103.999996	0	0	0	0	0	0	0	1590	4770	0	0	0.0000	0.0000	0.0000	0.0000;
	38	12	5.30213684	70.4	-55.299997	1.02	100	1	100.5	0	0	0	0	0	0	0	0	0	0	0	0	0.0000	0.0000	0.0000	0.0000;
	39	8	-2.76414449	88.200003	-69.300002	1.02	100	1	125.999999	0	0	0	0	0	0	0	0	0	0	0	0	0.0000	0.0000	0.0000	0.0000;
	41	0	0	49.274999	-45.989999	1.02	100	0	65.700001	40.599999	0	0	0	0	0	0	0	580	1740	0	0	0.0000	0.0000	0.0000	0.0000;
	52	6.286968	-0.41996142	11.3	-8.9	1.02	100	1	16.2	0	0	0	0	0	0	0	0	0	0	0	0	0.0000	0.0000	0.0000	0.0000;
	53	6.286968	0.333232833	26.300001	-20.6	1.02	100	1	37.5	0	0	0	0	0	0	0	0	0	0	0	0	0.0000	0.0000	0.0000	0.0000;
	60	0.788776	0.0197926767	0.6	-0.4	1.02	100	1	0.8	0.4	0	0	0	0	0	0	0	5000	15000	0	0	0.0000	0.0000	0.0000	0.0000;
	60	9.859694	-0.252591541	7	-5.5	1.02	100	1	10	4	0	0	0	0	0	0	0	5000	15000	0	0	0.0000	0.0000	0.0000	0.0000;
	63	0	0	66.149998	-61.739999	1.02	100	0	88.199997	60.000002	0	0	0	0	0	0	0	750	2250	0	0	0.0000	0.0000	0.0000	0.0000;
	63	653.643417	35.8632878	490.275002	-457.590008	1.02	100	1	653.700018	315.00001	0	0	0	0	0	0	0	900	2700	0	0	0.0000	0.0000	0.0000	0.0000;
	69	0	0	17.200001	-13.500001	1.02	100	0	24.5	5	0	0	0	0	0	0	0	10	30	0	0	0.0000	0.0000	0.0000	0.0000;
	69	0	0	17.200001	-13.500001	1.02	100	0	24.5	5	0	0	0	0	0	0	0	10	30	0	0	0.0000	0.0000	0.0000	0.0000;
	69	0	0	33.1	-25.999999	1.02	100	0	47.299999	9	0	0	0	0	0	0	0	235	705	0	0	0.0000	0.0000	0.0000	0.0000;
	69	0	2.21041559	20	-20	1.02	100	1	200	0	0	0	0	0	0	0	0	0	0	0	0	0.0000	0.0000	0.0000	0.0000;
	79	0	0	0.7	-0.6	1.02	100	0	1	0.3	0	0	0	0	0	0	0	2	6	0	0	0.0000	0.0000	0.0000	0.0000;
	79	0	0	0.9	-0.7	1.02	100	0	1.3	0.4	0	0	0	0	0	0	0	2.6	7.8	0	0	0.0000	0.0000	0.0000	0.0000;
	79	0	0	1	-0.8	1.02	100	0	1.4	0.4	0	0	0	0	0	0	0	2.8	8.4	0	0	0.0000	0.0000	0.0000	0.0000;
	79	0	0	1	-0.8	1.02	100	0	1.4	0.4	0	0	0	0	0	0	0	2.8	8.4	0	0	0.0000	0.0000	0.0000	0.0000;
	79	0	0	1.8	-1.4	1.02	100	0	2.5	0.1	0	0	0	0	0	0	0	0.6	1.8	0	0	0.0000	0.0000	0.0000	0.0000;
	79	0	0	1.9	-1.5	1.02	100	0	2.7	0.8	0	0	0	0	0	0	0	5.4	16.2	0	0	0.0000	0.0000	0.0000	0.0000;
	79	0	0	1.9	-1.5	1.02	100	0	2.7	0.8	0	0	0	0	0	0	0	5.4	16.2	0	0	0.0000	0.0000	0.0000	0.0000;
	79	0	0	2.1	-1.7	1.02	100	0	3	0.1	0	0	0	0	0	0	0	0.8	2.4	0	0	0.0000	0.0000	0.0000	0.0000;
	79	0	0	2.1	-1.7	1.02	100	0	3	0.1	0	0	0	0	0	0	0	0.8	2.4	0	0	0.0000	0.0000	0.0000	0.0000;
	79	0	0	5.3	-4.1	1.02	100	0	7.5	4	0	0	0	0	0	0	0	37.5	112.5	0	0	0.0000	0.0000	0.0000	0.0000;
	79	0	0	32.9	-25.9	1.02	100	0	47	1	0	0	0	0	0	0	0	233	699	0	0	0.0000	0.0000	0.0000	0.0000;
	79	0	0	109.300005	-85.900003	1.02	100	0	156.200004	44.999999	0	0	0	0	0	0	0	59.48	178.44	0	0	0.0000	0.0000	0.0000	0.0000;
	79	0	0	125.999999	-99.000001	1.02	100	0	179.999995	110.000002	0	0	0	0	0	0	0	398.2	1194.6	0	0	0.0000	0.0000	0.0000	0.0000;
	79	0	0	125.999999	-99.000001	1.02	100	0	179.999995	110.000002	0	0	0	0	0	0	0	390	1170	0	0	0.0000	0.0000	0.0000	0.0000;
	79	0	0	139.999998	-110.000002	1.02	100	0	200	64.999998	0	0	0	0	0	0	0	72.12	216.36	0	0	0.0000	0.0000	0.0000	0.0000;
	80	0	0	38.9	-30.500001	1.02	100	0	55.500001	15.000001	0	0	0	0	0	0	0	0	0	0	0	0.0000	0.0000	0.0000	0.0000;
	81	0	-9.3442089	20	-20	1.0221	100	1	200	0	0	0	0	0	0	0	0	0	0	0	0	0.0000	0.0000	0.0000	0.0000;
	82	6.286968	-1.23334064	24.2	-19	1.02	100	1	34.5	0	0	0	0	0	0	0	0	0	0	0	0	0.0000	0.0000	0.0000	0.0000;
	83	7.887755	-4.4	5.6	-4.4	1.02	100	1	8	4	0	0	0	0	0	0	0	5000	15000	0	0	0.0000	0.0000	0.0000	0.0000;
	83	7.887755	-4.4	5.6	-4.4	1.02	100	1	8	4	0	0	0	0	0	0	0	5000	15000	0	0	0.0000	0.0000	0.0000	0.0000;
	84	10.845663	-1.81506047	7.7	-6.1	1.02	100	1	11	1	0	0	0	0	0	0	0	5000	15000	0	0	0.0000	0.0000	0.0000	0.0000;
	84	10.845663	-1.81506047	7.7	-6.1	1.02	100	1	11	1	0	0	0	0	0	0	0	5000	15000	0	0	0.0000	0.0000	0.0000	0.0000;
	95	0	0	50.25	-46.900001	1.02	100	0	67.000002	37	0	0	0	0	0	0	0	510	1530	0	0	0.0000	0.0000	0.0000	0.0000;
	116	0	0	33.399999	-26.199999	1.02	100	0	47.7	41.999999	0	0	0	0	0	0	0	235	705	0	0	0.0000	0.0000	0.0000	0.0000;
	125	0	0	1.4	-1.1	1.02	100	0	2	0.1	0	0	0	0	0	0	0	4	12	0	0	0.0000	0.0000	0.0000	0.0000;
	125	0	0	76.574999	-71.469998	1.02	100	0	102.100003	75.999999	0	0	0	0	0	0	0	780	2340	0	0	0.0000	0.0000	0.0000	0.0000;
	127	708.878994	-52.8031503	669.824982	-625.169992	1.02	100	1	893.099976	666.400003	0	0	0	0	0	0	0	1200	3600	0	0	0.0000	0.0000	0.0000	0.0000;
	128	610.109282	-77.4826316	429.799986	-337.700009	1.02	100	1	613.999987	461.000013	0	0	0	0	0	0	0	15.106	45.318	0	0	0.0000	0.0000	0.0000	0.0000;
	150	0	0	0.7	-0.6	1.02	100	0	1	0.3	0	0	0	0	0	0	0	2	6	0	0	0.0000	0.0000	0.0000	0.0000;
	150	0	0	0.7	-0.6	1.02	100	0	1	0.3	0	0	0	0	0	0	0	2	6	0	0	0.0000	0.0000	0.0000	0.0000;
	150	0	0	12.6	-11.76	1.02	100	0	16.8	8.2	0	0	0	0	0	0	0	140	420	0	0	0.0000	0.0000	0.0000	0.0000;
	150	0	0	15.525	-14.489999	1.02	100	0	20.7	8.4	0	0	0	0	0	0	0	170	510	0	0	0.0000	0.0000	0.0000	0.0000;
	161	6.286968	4.30696606	14	-11	1.02	100	1	20	0	0	0	0	0	0	0	0	0	0	0	0	0.0000	0.0000	0.0000	0.0000;
	178	0	0	77.025002	-71.890002	1.02	100	0	102.699995	44.999999	0	0	0	0	0	0	0	540	1620	0	0	0.0000	0.0000	0.0000	0.0000;
	193	0	0	214.199996	-199.919999	1.02	100	0	285.599995	89.999998	0	0	0	0	0	0	0	900	2700	0	0	0.0000	0.0000	0.0000	0.0000;
	194	0	0	14	-11	1.02	100	0	20	0	0	0	0	0	0	0	0	200	600	0	0	0.0000	0.0000	0.0000	0.0000;
	199	0	0	5	-4	1.02	100	0	7.2	1	0	0	0	0	0	0	0	2.88	8.64	0	0	0.0000	0.0000	0.0000	0.0000;
	199	0	0	12.7	-10	1.02	100	0	18.2	2	0	0	0	0	0	0	0	10	30	0	0	0.0000	0.0000	0.0000	0.0000;
	212	0	0	0.6	-0.4	1.02	100	0	0.8	0.6	0	0	0	0	0	0	0	0	0	0	0	0.0000	0.0000	0.0000	0.0000;
	212	0	0	0.6	-0.4	1.02	100	0	0.8	0.6	0	0	0	0	0	0	0	0	0	0	0	0.0000	0.0000	0.0000	0.0000;
	212	0	0	0.6	-0.4	1.02	100	0	0.8	0.6	0	0	0	0	0	0	0	0	0	0	0	0.0000	0.0000	0.0000	0.0000;
	212	0	0	0.6	-0.4	1.02	100	0	0.8	0.6	0	0	0	0	0	0	0	0	0	0	0	0.0000	0.0000	0.0000	0.0000;
	212	0	0	0.6	-0.4	1.02	100	0	0.8	0.6	0	0	0	0	0	0	0	0	0	0	0	0.0000	0.0000	0.0000	0.0000;
	212	0	0	0.6	-0.4	1.02	100	0	0.8	0.6	0	0	0	0	0	0	0	0	0	0	0	0.0000	0.0000	0.0000	0.0000;
	212	0	0	0.6	-0.4	1.02	100	0	0.8	0.6	0	0	0	0	0	0	0	0	0	0	0	0.0000	0.0000	0.0000	0.0000;
	212	0	0	0.6	-0.4	1.02	100	0	0.8	0.6	0	0	0	0	0	0	0	0	0	0	0	0.0000	0.0000	0.0000	0.0000;
	212	0	0	1.1	-0.9	1.02	100	0	1.6	0.8	0	0	0	0	0	0	0	0	0	0	0	0.0000	0.0000	0.0000	0.0000;
	212	0	0	1.1	-0.9	1.02	100	0	1.6	0.8	0	0	0	0	0	0	0	0	0	0	0	0.0000	0.0000	0.0000	0.0000;
	212	0	0	1.1	-0.9	1.02	100	0	1.6	0.8	0	0	0	0	0	0	0	0	0	0	0	0.0000	0.0000	0.0000	0.0000;
	234	0	0	0.8	-0.6	1.02	100	0	1.1	0.5	0	0	0	0	0	0	0	2	6	0	0	0.0000	0.0000	0.0000	0.0000;
	234	0	0	49.649999	-46.340001	1.02	100	0	66.2	48.800001	0	0	0	0	0	0	0	510	1530	0	0	0.0000	0.0000	0.0000	0.0000;
	250	0	0	0.3	-0.2	1.02	100	0	0.4	0.1	0	0	0	0	0	0	0	5000	15000	0	0	0.0000	0.0000	0.0000	0.0000;
	250	0	0	2.1	-1.7	1.02	100	0	3	0.4	0	0	0	0	0	0	0	0.0572	0.1716	0	0	0.0000	0.0000	0.0000	0.0000;
	250	0	0	8.8	-6.9	1.02	100	0	12.5	4	0	0	0	0	0	0	0	0.325	0.975	0	0	0.0000	0.0000	0.0000	0.0000;
	250	12.620409	6.9587483	9	-7	1.02	100	1	12.800001	0	0	0	0	0	0	0	0	5000	15000	0	0	0.0000	0.0000	0.0000	0.0000;
	250	12.620409	6.9587483	9	-7	1.02	100	1	12.800001	0	0	0	0	0	0	0	0	5000	15000	0	0	0.0000	0.0000	0.0000	0.0000;
	250	0	0	10.5	-8.3	1.02	100	0	15.000001	4	0	0	0	0	0	0	0	0.39	1.17	0	0	0.0000	0.0000	0.0000	0.0000;
	250	17.74745	9.7294898	12.6	-9.9	1.02	100	1	18.000001	0	0	0	0	0	0	0	0	5000	15000	0	0	0.0000	0.0000	0.0000	0.0000;
	250	0	0	17.900001	-14.1	1.02	100	0	25.600001	5	0	0	0	0	0	0	0	0.6656	1.9968	0	0	0.0000	0.0000	0.0000	0.0000;
	250	0	0	17.900001	-14.1	1.02	100	0	25.600001	5	0	0	0	0	0	0	0	0.6656	1.9968	0	0	0.0000	0.0000	0.0000	0.0000;
	250	0	0	17.900001	-14.1	1.02	100	0	25.600001	5	0	0	0	0	0	0	0	0.6656	1.9968	0	0	0.0000	0.0000	0.0000	0.0000;
	250	0	0	17.900001	-14.1	1.02	100	0	25.600001	5	0	0	0	0	0	0	0	0.6656	1.9968	0	0	0.0000	0.0000	0.0000	0.0000;
	284	0	0	17.5	-13.8	1.02	100	0	25	3	0	0	0	0	0	0	0	0	0	0	0	0.0000	0.0000	0.0000	0.0000;
	284	0	0	17.5	-13.8	1.02	100	0	25	3	0	0	0	0	0	0	0	0	0	0	0	0.0000	0.0000	0.0000	0.0000;
	317	0	0	44.925001	-41.929999	1.02	100	0	59.899998	40.000001	0	0	0	0	0	0	0	490	1470	0	0	0.0000	0.0000	0.0000	0.0000;
	339	0	0	27.700001	-21.699999	1.02	100	0	39.500001	3.5	0	0	0	0	0	0	0	0	0	0	0	0.0000	0.0000	0.0000	0.0000;
	357	877.702904	-13.1044993	618.300009	-485.79998	1.02	100	1	883.300018	661.999989	0	0	0	0	0	0	0	22.2014	66.6042	0	0	0.0000	0.0000	0.0000	0.0000;
	358	542.534351	-24.4117611	407.175016	-380.029988	1.02	100	1	542.89999	225	0	0	0	0	0	0	0	900	2700	0	0	0.0000	0.0000	0.0000	0.0000;
	358	543.200016	-24.425276	407.399988	-380.240011	1.02	100	1	543.200016	225	0	0	0	0	0	0	0	900	2700	0	0	0.0000	0.0000	0.0000	0.0000;
	368	6	16.4722968	20.999999	-16.500001	1.02	100	1	30.000001	0.1	0	0	0	0	0	0	0	0	0	0	0	0.0000	0.0000	0.0000	0.0000;
	378	3.943877	0.214729011	2.8	-2.2	1.02	100	1	4	2.8	0	0	0	0	0	0	0	5000	15000	0	0	0.0000	0.0000	0.0000	0.0000;
	378	3.943877	0.214729011	2.8	-2.2	1.02	100	1	4	2.8	0	0	0	0	0	0	0	5000	15000	0	0	0.0000	0.0000	0.0000	0.0000;
	378	3.943877	0.214729011	2.8	-2.2	1.02	100	1	4	2.8	0	0	0	0	0	0	0	5000	15000	0	0	0.0000	0.0000	0.0000	0.0000;
	381	0	0	0.8	-0.6	1.02	100	0	1.1	0.2	0	0	0	0	0	0	0	2.2	6.6	0	0	0.0000	0.0000	0.0000	0.0000;
	381	0	0	48.15	-44.940001	1.02	100	0	64.200002	47	0	0	0	0	0	0	0	540	1620	0	0	0.0000	0.0000	0.0000	0.0000;
	395	6.286968	-6.06871238	23.100001	-18.2	1.02	100	1	33.000001	0.3	0	0	0	0	0	0	0	0	0	0	0	0.0000	0.0000	0.0000	0.0000;
	395	7.3	-11.187961	42.699999	-33.6	1.02	100	1	61.000001	0.5	0	0	0	0	0	0	0	0	0	0	0	0.0000	0.0000	0.0000	0.0000;
	395	12.573937	-16.672868	63.700002	-50.099999	1.02	100	1	91.000003	0.7	0	0	0	0	0	0	0	0	0	0	0	0.0000	0.0000	0.0000	0.0000;
	395	14	-25.0830635	95.899999	-75.400001	1.02	100	1	137	1.1	0	0	0	0	0	0	0	0	0	0	0	0.0000	0.0000	0.0000	0.0000;
	399	6.286968	2.93215842	51.800001	-40.700001	1.02	100	1	74.000001	0	0	0	0	0	0	0	0	0	0	0	0	0.0000	0.0000	0.0000	0.0000;
	405	25.635204	-4.7158523	18.2	-14.300001	1.02	100	1	25.999999	1	0	0	0	0	0	0	0	5000	15000	0	0	0.0000	0.0000	0.0000	0.0000;
	406	14.789541	-4.47808299	10.5	-8.3	1.02	100	1	15.000001	1	0	0	0	0	0	0	0	5000	15000	0	0	0.0000	0.0000	0.0000	0.0000;
	407	24.649233	-4.69422604	17.5	-13.8	1.02	100	1	25	1	0	0	0	0	0	0	0	5000	15000	0	0	0.0000	0.0000	0.0000	0.0000;
	408	23.663265	-4.44335628	16.8	-13.2	1.02	100	1	23.999999	1	0	0	0	0	0	0	0	5000	15000	0	0	0.0000	0.0000	0.0000	0.0000;
	409	20.705356	-3.17302206	14.7	-11.6	1.02	100	1	20.999999	1	0	0	0	0	0	0	0	5000	15000	0	0	0.0000	0.0000	0.0000	0.0000;
	463	1.28176	-0.142399345	0.9	-0.7	1.02	100	1	1.3	0.2	0	0	0	0	0	0	0	5000	15000	0	0	0.0000	0.0000	0.0000	0.0000;
	463	6.901786	-0.8331964	4.9	-3.9	1.02	100	1	7	1	0	0	0	0	0	0	0	5000	15000	0	0	0.0000	0.0000	0.0000	0.0000;
	463	6.901786	-0.8331964	4.9	-3.9	1.02	100	1	7	1	0	0	0	0	0	0	0	5000	15000	0	0	0.0000	0.0000	0.0000	0.0000;
	463	6.901786	-0.8331964	4.9	-3.9	1.02	100	1	7	1	0	0	0	0	0	0	0	5000	15000	0	0	0.0000	0.0000	0.0000	0.0000;
	463	6.901786	-0.8331964	4.9	-3.9	1.02	100	1	7	1	0	0	0	0	0	0	0	5000	15000	0	0	0.0000	0.0000	0.0000	0.0000;
	463	6.901786	-0.8331964	4.9	-3.9	1.02	100	1	7	1	0	0	0	0	0	0	0	5000	15000	0	0	0.0000	0.0000	0.0000	0.0000;
	469	0	0	10.1	-7.9	1.02	100	0	14.399999	2	0	0	0	0	0	0	0	0	0	0	0	0.0000	0.0000	0.0000	0.0000;
	474	8.873725	1.03775978	6.3	-5	1.02	100	1	9	4	0	0	0	0	0	0	0	5000	15000	0	0	0.0000	0.0000	0.0000	0.0000;
	474	46.340558	5.51772343	32.9	-25.9	1.02	100	1	47	8	0	0	0	0	0	0	0	5000	15000	0	0	0.0000	0.0000	0.0000	0.0000;
	492	0	0	29.499999	-23.199999	1.02	100	0	42.1	2	0	0	0	0	0	0	0	15.6	46.8	0	0	0.0000	0.0000	0.0000	0.0000;
	508	0	0	80.400002	-75.040001	1.02	100	0	107.200003	56	0	0	0	0	0	0	0	300	900	0	0	0.0000	0.0000	0.0000	0.0000;
	508	338.333488	-20.964474	254.099989	-237.159991	1.02	100	1	338.800001	100.999999	0	0	0	0	0	0	0	300	900	0	0	0.0000	0.0000	0.0000	0.0000;
	526	17.74745	-2.81645076	12.6	-9.9	1.02	100	1	18.000001	1	0	0	0	0	0	0	0	5000	15000	0	0	0.0000	0.0000	0.0000	0.0000;
	535	0	0	29.300001	-23	1.02	100	0	41.9	5	0	0	0	0	0	0	0	200	600	0	0	0.0000	0.0000	0.0000	0.0000;
	535	769.999981	-61.1527131	577.50001	-538.999987	1.02	100	1	769.999981	385.99999	0	0	0	0	0	0	0	900	2700	0	0	0.0000	0.0000	0.0000	0.0000;
	546	0	0	32.600001	-25.600001	1.02	100	0	46.5	5	0	0	0	0	0	0	0	219	657	0	0	0.0000	0.0000	0.0000	0.0000;
	547	0	0	0.1	-0.1	1.02	100	0	0.2	0.1	0	0	0	0	0	0	0	0.5	1.5	0	0	0.0000	0.0000	0.0000	0.0000;
	547	0	0	0.3	-0.2	1.02	100	0	0.4	0.3	0	0	0	0	0	0	0	1	3	0	0	0.0000	0.0000	0.0000	0.0000;
	547	0	0	0.6	-0.4	1.02	100	0	0.8	0.2	0	0	0	0	0	0	0	2	6	0	0	0.0000	0.0000	0.0000	0.0000;
	547	0	0	0.7	-0.6	1.02	100	0	1	0.1	0	0	0	0	0	0	0	2	6	0	0	0.0000	0.0000	0.0000	0.0000;
	547	0	0	0.7	-0.6	1.02	100	0	1	0.3	0	0	0	0	0	0	0	2	6	0	0	0.0000	0.0000	0.0000	0.0000;
	547	0	0	0.7	-0.6	1.02	100	0	1	0.2	0	0	0	0	0	0	0	2	6	0	0	0.0000	0.0000	0.0000	0.0000;
	547	0	0	1.1	-0.8	1.02	100	0	1.5	0.1	0	0	0	0	0	0	0	3	9	0	0	0.0000	0.0000	0.0000	0.0000;
	547	0	0	1.1	-0.8	1.02	100	0	1.5	0.1	0	0	0	0	0	0	0	3	9	0	0	0.0000	0.0000	0.0000	0.0000;
	547	0	0	1.1	-0.8	1.02	100	0	1.5	0.3	0	0	0	0	0	0	0	3	9	0	0	0.0000	0.0000	0.0000	0.0000;
	547	0	0	1.4	-1.1	1.02	100	0	2	0.3	0	0	0	0	0	0	0	4	12	0	0	0.0000	0.0000	0.0000	0.0000;
	547	0	0	1.4	-1.1	1.02	100	0	2	0.3	0	0	0	0	0	0	0	4	12	0	0	0.0000	0.0000	0.0000	0.0000;
	547	0	0	1.8	-1.4	1.02	100	0	2.5	0.3	0	0	0	0	0	0	0	5	15	0	0	0.0000	0.0000	0.0000	0.0000;
	552	0	0	11.2	-8.8	1.01	100	0	16	10.6	0	0	0	0	0	0	0	83	249	0	0	0.0000	0.0000	0.0000	0.0000;
	552	0	0	37.099999	-29.2	1.01	100	0	52.999997	37	0	0	0	0	0	0	0	233.5	700.5	0	0	0.0000	0.0000	0.0000	0.0000;
	552	0	0	37.099999	-29.2	1.01	100	0	52.999997	37	0	0	0	0	0	0	0	235.5	706.5	0	0	0.0000	0.0000	0.0000	0.0000;
	552	0	0	131.599998	-103.400004	1.01	100	0	188	15.000001	0	0	0	0	0	0	0	75.68	227.04	0	0	0.0000	0.0000	0.0000	0.0000;
	552	0	0	131.599998	-103.400004	1.01	100	0	188	15.000001	0	0	0	0	0	0	0	77.88	233.64	0	0	0.0000	0.0000	0.0000	0.0000;
	554	0	0	261.675	-244.230008	1.01	100	0	348.899984	229.999995	0	0	0	0	0	0	0	600	1800	0	0	0.0000	0.0000	0.0000	0.0000;
	556	528.000021	205.600852	396.000004	-369.60001	1.02	100	1	528.000021	202.999997	0	0	0	0	0	0	0	900	2700	0	0	0.0000	0.0000	0.0000	0.0000;
	557	0	0	29.300001	-23	1.02	100	0	41.9	18.6	0	0	0	0	0	0	0	227.5	682.5	0	0	0.0000	0.0000	0.0000	0.0000;
	557	0	0	29.300001	-23	1.02	100	0	41.9	18.6	0	0	0	0	0	0	0	224	672	0	0	0.0000	0.0000	0.0000	0.0000;
	557	0	0	29.300001	-23	1.02	100	0	41.9	18.6	0	0	0	0	0	0	0	233	699	0	0	0.0000	0.0000	0.0000	0.0000;
	557	0	0	29.300001	-23	1.02	100	0	41.9	18.6	0	0	0	0	0	0	0	226	678	0	0	0.0000	0.0000	0.0000	0.0000;
	557	0	0	29.300001	-23	1.02	100	0	41.9	18.6	0	0	0	0	0	0	0	229	687	0	0	0.0000	0.0000	0.0000	0.0000;
	557	0	0	29.300001	-23	1.02	100	0	41.9	18.6	0	0	0	0	0	0	0	235	705	0	0	0.0000	0.0000	0.0000	0.0000;
...
];

%% branch data
%	fbus	tbus	r	x	b	rateA	rateB	rateC	ratio	angle	status	angmin	angmax	Pf	Qf	Pt	Qt	mu_Sf	mu_St	mu_angmin	mu_angmax
mpc.branch = [
	142	1	0.03889	0.16081	0.02663	167	556	210	0	0	1	0	0	-36.3375	10.2520	36.8844	-10.7402	0.0000	0.0000	0.0000	0.0000;
	1	199	0.00254	0.01051	0.00174	167	556	210	0	0	1	0	0	11.2042	-0.1689	-11.2011	0.0026	0.0000	0.0000	0.0000	0.0000;
	1	228	0.01207	0.04989	0.00826	167	556	210	0	0	1	0	0	37.8987	-8.1270	-37.7234	8.0012	0.0000	0.0000	0.0000	0.0000;
	1	228	0.01336	0.05524	0.00915	167	556	210	0	0	1	0	0	34.2293	-7.4245	-34.0711	7.1370	0.0000	0.0000	0.0000	0.0000;
	1	242	0.00663	0.02741	0.00454	167	556	210	0	0	1	0	0	25.4670	-9.5677	-25.4197	9.2955	0.0000	0.0000	0.0000	0.0000;
	881	1	0.00926	0.0383	0.00634	167	556	210	0	0	1	0	0	21.2758	-13.5180	-21.2191	13.1016	0.0000	0.0000	0.0000	0.0000;
	882	1	0.00917	0.03791	0.00628	167	556	210	0	0	1	0	0	21.4819	-13.6477	-21.4247	13.2396	0.0000	0.0000	0.0000	0.0000;
	883	1	0.00543	0.02247	0.00372	167	556	210	0	0	1	0	0	26.5997	-11.0589	-26.5561	10.8567	0.0000	0.0000	0.0000	0.0000;
	1	1402	0.0028	0.01156	0.00192	116	556	145	0	0	1	0	0	41.8957	-15.3036	-41.8417	15.3287	0.0000	0.0000	0.0000	0.0000;
	1	1402	0.0028	0.01156	0.00192	116	556	145	0	0	1	0	0	41.8957	-15.3036	-41.8417	15.3287	0.0000	0.0000	0.0000	0.0000;
	1	1403	0.00276	0.01141	0.00189	167	556	210	0	0	1	0	0	48.8065	1.2331	-48.7426	-1.1633	0.0000	0.0000	0.0000	0.0000;
	1	1404	0.00277	0.01146	0.0019	167	556	210	0	0	1	0	0	48.7557	1.2312	-48.6917	-1.1619	0.0000	0.0000	0.0000	0.0000;
	1	1405	0.00278	0.01149	0.0019	167	556	210	0	0	1	0	0	13.9523	0.2791	-13.9471	-0.4530	0.0000	0.0000	0.0000	0.0000;
	1	1422	0.0019	0.00785	0.0013	167	556	210	0	0	1	0	0	15.8636	-0.1685	-15.8590	0.0538	0.0000	0.0000	0.0000	0.0000;
	1	1550	0.02427	0.10034	0.01662	116	556	145	0	0	1	0	0	-55.7015	11.2052	56.4669	-9.7574	0.0000	0.0000	0.0000	0.0000;
	1	1550	0.02427	0.10034	0.01662	116	556	145	0	0	1	0	0	-55.7015	11.2052	56.4669	-9.7574	0.0000	0.0000	0.0000	0.0000;
	1	1551	0.00477	0.01973	0.00327	556	556	556	0	0	1	0	0	-118.6778	2.0928	119.3303	0.2678	0.0000	0.0000	0.0000	0.0000;
	1	1551	0.00437	0.01805	0.00299	556	556	556	0	0	1	0	0	-129.7127	2.3594	130.4270	0.2810	0.0000	0.0000	0.0000	0.0000;
	777	2	0.04083	0.09281	0.00181	96	250	123	0	0	1	0	0	1.0004	-0.1846	-1.0000	0.0000	0.0000	0.0000	0.0000	0.0000;
	794	3	0.00164	0.00676	0.00112	167	556	210	0	0	1	0	0	2.2201	-0.1161	-2.2200	0.0000	0.0000	0.0000	0.0000	0.0000;
	4	193	0.00102	0.00421	0.0007	167	556	210	0	0	1	0	0	25.5089	-0.0545	-25.5022	0.0123	0.0000	0.0000	0.0000	0.0000;
	4	193	0.00105	0.00435	0.00072	167	556	210	0	0	1	0	0	24.6930	-0.0338	-24.6866	-0.0112	0.0000	0.0000	0.0000	0.0000;
	4	193	0.00103	0.00425	0.0007	167	556	210	0	0	1	0	0	25.2684	-0.0560	-25.2618	0.0136	0.0000	0.0000	0.0000	0.0000;
	4	449	0.00637	0.02634	0.00436	167	556	210	0	0	1	0	0	10.5049	-1.7093	-10.4977	1.3048	0.0000	0.0000	0.0000	0.0000;
	4	1527	0.00495	0.0211	0.0027	167	556	210	0	0	1	0	0	-80.7126	0.9268	81.0363	0.1831	0.0000	0.0000	0.0000	0.0000;
	4	1527	0.00495	0.0211	0.0027	167	556	210	0	0	1	0	0	-80.7126	0.9268	81.0363	0.1831	0.0000	0.0000	0.0000	0.0000;
	990	5	5e-05	0.00019	3e-05	167	556	210	0	0	1	0	0	2.2200	-0.0031	-2.2200	-0.0000	0.0000	0.0000	0.0000	0.0000;
	635	6	0.00361	0.01494	0.00247	167	556	210	0	0	1	0	0	-9.2142	1.4094	9.2172	-1.6538	0.0000	0.0000	0.0000	0.0000;
	698	7	0.00203	0.00841	0.00139	167	556	210	0	0	1	0	0	0.7364	-0.1119	-0.7364	-0.0319	0.0000	0.0000	0.0000	0.0000;
	699	7	0.00203	0.00839	0.00139	167	556	210	0	0	1	0	0	3.6939	-0.1746	-3.6936	0.0319	0.0000	0.0000	0.0000	0.0000;
	676	8	0.00211	0.00871	0.00144	167	556	210	0	0	1	0	0	-6.0899	1.3382	6.0907	-1.4846	0.0000	0.0000	0.0000	0.0000;
	677	8	0.00211	0.00873	0.00145	167	556	210	0	0	1	0	0	10.5230	-1.6259	-10.5207	1.4846	0.0000	0.0000	0.0000	0.0000;
	9	524	0.01092	0.04516	0.00748	556	556	556	0	0	1	0	0	-2.7990	7.9023	2.8071	-8.6385	0.0000	0.0000	0.0000	0.0000;
	649	9	0.01472	0.06087	0.01008	556	556	556	0	0	1	0	0	-7.1262	-10.4847	7.1479	9.5411	0.0000	0.0000	0.0000	0.0000;
	649	9	0.01472	0.06087	0.01008	556	556	556	0	0	1	0	0	-7.1262	-10.4847	7.1479	9.5411	0.0000	0.0000	0.0000	0.0000;
	848	9	0.001	0.07	0	750	750	750	0.975	0	1	0	0	138.6330	48.9908	-138.4354	-35.1583	0.0000	0.0000	0.0000	0.0000;
	9	851	0.00323	0.01336	0.00221	240	556	265	0	0	1	0	0	107.3786	8.1739	-107.0158	-6.9000	0.0000	0.0000	0.0000	0.0000;
	10	450	0.00418	0.01729	0.00286	167	556	210	0	0	1	0	0	-15.0900	0.0000	15.0997	-0.2407	0.0000	0.0000	0.0000	0.0000;
	11	489	0.00196	0.00812	0.00134	167	556	210	0	0	1	0	0	-6.3022	-2.1444	6.3030	2.0085	0.0000	0.0000	0.0000	0.0000;
	795	11	0.0004	0.00165	0.00027	167	556	210	0	0	1	0	0	-1.8722	-2.1724	1.8722	2.1444	0.0000	0.0000	0.0000	0.0000;
	872	12	5e-05	0.00019	3e-05	167	556	210	0	0	1	0	0	2.2200	-0.0031	-2.2200	0.0000	0.0000	0.0000	0.0000	0.0000;
	13	196	0.00156	0.00645	0.00107	167	556	210	0	0	1	0	0	-3.9854	-2.1256	3.9857	2.0162	0.0000	0.0000	0.0000	0.0000;
	864	13	0.00811	0.03354	0.00555	167	556	210	0	0	1	0	0	0.0851	-2.6246	-0.0847	2.0530	0.0000	0.0000	0.0000	0.0000;
	865	13	0.00813	0.03361	0.00557	167	556	210	0	0	1	0	0	0.8082	-2.7707	-0.8077	2.1975	0.0000	0.0000	0.0000	0.0000;
	13	1442	0.00156	0.00646	0.00107	167	556	210	0	0	1	0	0	-3.9922	-2.1249	3.9925	2.0155	0.0000	0.0000	0.0000	0.0000;
	14	460	0.00143	0.0059	0.00098	167	556	210	0	0	1	0	0	1.3700	-0.1007	-1.3700	-0.0000	0.0000	0.0000	0.0000	0.0000;
	1017	14	0.00284	0.01174	0.00194	167	556	210	0	0	1	0	0	4.1005	-0.2984	-4.1000	0.1007	0.0000	0.0000	0.0000	0.0000;
	59	15	0.03648	0.15084	0.02498	167	556	210	0	0	1	0	0	-25.7181	6.6046	25.9711	-8.1616	0.0000	0.0000	0.0000	0.0000;
	15	402	0.0021	0.0087	0.00144	167	556	210	0	0	1	0	0	-12.9256	2.6451	12.9291	-2.7803	0.0000	0.0000	0.0000	0.0000;
	16	391	0.02118	0.08756	0.0145	167	556	210	0	0	1	0	0	29.3066	-5.4439	-29.1264	4.6900	0.0000	0.0000	0.0000	0.0000;
	1030	16	0.00835	0.03453	0.00572	167	556	210	0	0	1	0	0	53.2847	-8.6025	-53.0508	8.9766	0.0000	0.0000	0.0000	0.0000;
	1050	16	0.02493	0.1031	0.01707	167	556	210	0	0	1	0	0	60.1689	-12.4950	-59.2666	14.4575	0.0000	0.0000	0.0000	0.0000;
	1051	16	0.00207	0.00857	0.00142	167	556	210	0	0	1	0	0	-50.3356	12.9978	50.3897	-12.9210	0.0000	0.0000	0.0000	0.0000;
	16	1394	0.02598	0.10743	0.01779	167	556	210	0	0	1	0	0	25.7911	-5.0691	-25.6198	3.9383	0.0000	0.0000	0.0000	0.0000;
	17	628	0.0017	0.0085	0.064	300	300	330	0	0	1	0	0	-72.3836	-8.0099	72.4706	1.8492	0.0000	0.0000	0.0000	0.0000;
	17	628	0.0017	0.0085	0.064	300	300	330	0	0	1	0	0	-72.3836	-8.0099	72.4706	1.8492	0.0000	0.0000	0.0000	0.0000;
	17	1467	0.00302	0.10864	0	500	500	500	1	0	1	0	0	62.9136	8.0099	-62.7956	-3.7627	0.0000	0.0000	0.0000	0.0000;
	17	1467	0.00302	0.10864	0	500	500	500	1	0	1	0	0	62.9136	8.0099	-62.7956	-3.7627	0.0000	0.0000	0.0000	0.0000;
	18	561	0.04007	0.09109	0.00178	250	250	250	0	0	1	0	0	71.6268	-17.1793	-69.5122	21.8053	0.0000	0.0000	0.0000	0.0000;
	18	583	0.01009	0.02294	0.00045	200	250	200	0	0	1	0	0	40.6839	-5.0312	-40.5189	5.3602	0.0000	0.0000	0.0000	0.0000;
	18	585	0.00802	0.01823	0.00036	250	250	250	0	0	1	0	0	54.6120	-9.4958	-54.3722	10.0040	0.0000	0.0000	0.0000	0.0000;
	18	1494	0.00357	0.00812	0.00016	250	250	250	0	0	1	0	0	-57.1167	9.7877	57.2334	-9.5388	0.0000	0.0000	0.0000	0.0000;
	18	1494	0.0032	0.00727	0.00014	250	250	250	0	0	1	0	0	-63.7780	10.9593	63.9085	-10.6774	0.0000	0.0000	0.0000	0.0000;
	18	1494	0.0032	0.00727	0.00014	250	250	250	0	0	1	0	0	-63.7780	10.9593	63.9085	-10.6774	0.0000	0.0000	0.0000	0.0000;
	19	1538	0.0038	0.01572	0.0026	556	556	556	0	0	1	0	0	225.6200	30.3975	-223.7267	-22.8324	0.0000	0.0000	0.0000	0.0000;
	19	1538	0.0038	0.01572	0.0026	556	556	556	0	0	1	0	0	225.6200	30.3975	-223.7267	-22.8324	0.0000	0.0000	0.0000	0.0000;
	19	1538	0.0038	0.01572	0.0026	556	556	556	0	0	1	0	0	225.6200	30.3975	-223.7267	-22.8324	0.0000	0.0000	0.0000	0.0000;
	19	1538	0.0038	0.01572	0.0026	556	556	556	0	0	1	0	0	225.6200	30.3975	-223.7267	-22.8324	0.0000	0.0000	0.0000	0.0000;
	19	1538	0.0038	0.01572	0.0026	556	556	556	0	0	1	0	0	225.6200	30.3975	-223.7267	-22.8324	0.0000	0.0000	0.0000	0.0000;
	1004	20	0.00062	0.00256	0.00042	167	556	210	0	0	1	0	0	61.7537	-5.8232	-61.7308	5.8742	0.0000	0.0000	0.0000	0.0000;
	1008	20	0.01418	0.05866	0.00971	167	556	210	0	0	1	0	0	-38.2275	4.4620	38.4313	-4.6259	0.0000	0.0000	0.0000	0.0000;
	1020	20	0.00918	0.03796	0.00629	167	556	210	0	0	1	0	0	22.6490	-7.9476	-22.5985	7.5030	0.0000	0.0000	0.0000	0.0000;
	1195	20	0.00943	0.03899	0.00646	167	556	210	0	0	1	0	0	-40.2733	8.7196	40.4279	-8.7514	0.0000	0.0000	0.0000	0.0000;
	21	403	0.005	0.02069	0.00343	167	556	210	0	0	1	0	0	18.4872	-5.0218	-18.4696	4.7376	0.0000	0.0000	0.0000	0.0000;
	21	406	0.02031	0.06988	0.00859	116	556	145	0	0	1	0	0	-30.3900	8.7529	30.5869	-8.9695	0.0000	0.0000	0.0000	0.0000;
	1004	21	0.0004	0.00163	0.00027	167	556	210	0	0	1	0	0	-16.0096	-5.9897	16.0107	5.9662	0.0000	0.0000	0.0000	0.0000;
	1005	21	0.00536	0.02218	0.00367	167	556	210	0	0	1	0	0	15.2213	-7.5658	-15.2066	7.2453	0.0000	0.0000	0.0000	0.0000;
	1009	21	0.01417	0.05861	0.00971	167	556	210	0	0	1	0	0	-40.8909	4.6455	41.1237	-4.6902	0.0000	0.0000	0.0000	0.0000;
	1204	22	0.02827	0.06426	0.00126	96	250	123	0	0	1	0	0	1.0003	-0.1284	-1.0000	0.0000	0.0000	0.0000	0.0000	0.0000;
	751	23	0.03122	0.1291	0.02138	167	556	210	0	0	1	0	0	-24.8752	-1.0847	25.0639	-0.3410	0.0000	0.0000	0.0000	0.0000;
	1193	23	0.00673	0.02783	0.00461	167	556	210	0	0	1	0	0	42.6819	-8.4598	-42.5597	8.4850	0.0000	0.0000	0.0000	0.0000;
	1194	23	0.00672	0.0278	0.0046	167	556	210	0	0	1	0	0	42.8767	-8.3873	-42.7538	8.4171	0.0000	0.0000	0.0000	0.0000;
	1208	23	0.01755	0.07259	0.01202	167	556	210	0	0	1	0	0	-25.8287	0.7360	25.9424	-1.5116	0.0000	0.0000	0.0000	0.0000;
	1214	23	0.00381	0.01575	0.00261	167	556	210	0	0	1	0	0	-27.4414	14.9256	27.4772	-15.0494	0.0000	0.0000	0.0000	0.0000;
	908	24	0.00179	0.00742	0.00123	167	556	210	0	0	1	0	0	11.8383	-16.9002	-11.8310	16.8027	0.0000	0.0000	0.0000	0.0000;
	913	24	0.02737	0.11317	0.01874	167	556	210	0	0	1	0	0	-36.5887	8.3418	36.9640	-8.7390	0.0000	0.0000	0.0000	0.0000;
	914	24	0.03784	0.15647	0.02591	167	556	210	0	0	1	0	0	-35.5297	8.2617	36.0225	-8.9194	0.0000	0.0000	0.0000	0.0000;
	1100	24	0.02855	0.11804	0.01955	167	556	210	0	0	1	0	0	71.9230	-16.1755	-70.4370	20.2878	0.0000	0.0000	0.0000	0.0000;
	1102	24	0.02496	0.10319	0.01709	167	556	210	0	0	1	0	0	-29.7411	-0.4592	29.9564	-0.4158	0.0000	0.0000	0.0000	0.0000;
	25	83	0.0105	0.04341	0.00719	167	556	210	0	0	1	0	0	-1.3700	-0.0000	1.3702	-0.7487	0.0000	0.0000	0.0000	0.0000;
	26	557	1e-05	0.00019	0.00501	1216	2454	1804	0	0	1	0	0	441.6052	13.2069	-441.5864	-13.3716	0.0000	0.0000	0.0000	0.0000;
	26	557	1e-05	0.00018	0.00468	1216	2454	1804	0	0	1	0	0	466.1048	12.6112	-466.0839	-12.7219	0.0000	0.0000	0.0000	0.0000;
	26	1468	0.00124	0.0559	0	1347	1347	1347	1	0	1	0	0	337.2900	27.7830	-335.9249	33.7567	0.0000	0.0000	0.0000	0.0000;
	1068	27	7e-05	0.0003	5e-05	167	556	210	0	0	1	0	0	23.0903	-1.0034	-23.0899	0.9999	0.0000	0.0000	0.0000	0.0000;
	1070	27	0.00033	0.00136	0.00022	167	556	210	0	0	1	0	0	-17.1589	0.9817	17.1599	-0.9999	0.0000	0.0000	0.0000	0.0000;
	1286	28	0.0005	0.00207	0.00035	116	556	145	0	0	1	0	0	-11.8331	3.2788	11.8339	-3.3122	0.0000	0.0000	0.0000	0.0000;
	1287	28	0.0005	0.00205	0.00034	116	556	145	0	0	1	0	0	13.2048	-3.3439	-13.2039	3.3122	0.0000	0.0000	0.0000	0.0000;
	124	29	0.03314	0.13704	0.02269	167	556	210	0	0	1	0	0	-24.4259	8.5903	24.6468	-10.0225	0.0000	0.0000	0.0000	0.0000;
	29	152	0.00852	0.03523	0.00583	167	556	210	0	0	1	0	0	-11.5658	-0.4784	11.5769	-0.0764	0.0000	0.0000	0.0000	0.0000;
	212	29	0.01428	0.05907	0.00978	167	556	210	0	0	1	0	0	52.0164	-19.6862	-51.5861	20.4639	0.0000	0.0000	0.0000	0.0000;
	896	29	0.02749	0.11366	0.01882	167	556	210	0	0	1	0	0	-26.4438	8.8939	26.6552	-9.9630	0.0000	0.0000	0.0000	0.0000;
	30	55	0.02366	0.09785	0.0162	167	556	210	0	0	1	0	0	29.6965	-6.7284	-29.4880	5.9063	0.0000	0.0000	0.0000	0.0000;
	30	131	0.00843	0.03485	0.00577	167	556	210	0	0	1	0	0	-26.3395	7.8026	26.4010	-8.1482	0.0000	0.0000	0.0000	0.0000;
	32	31	0.0006	0.0027	0.00044	135	556	175	0	0	1	0	0	-36.8742	8.3895	36.8824	-8.3982	0.0000	0.0000	0.0000	0.0000;
	680	31	0.00125	0.00518	0.00086	167	556	210	0	0	1	0	0	-19.0653	3.6971	19.0698	-3.7678	0.0000	0.0000	0.0000	0.0000;
	32	84	0.0108	0.0428	0.0055	120	556	120	0	0	1	0	0	-7.0792	1.5245	7.0848	-2.0747	0.0000	0.0000	0.0000	0.0000;
	32	474	0.00565	0.02337	0.00387	167	556	210	0	0	1	0	0	26.0342	-6.3873	-25.9953	6.1455	0.0000	0.0000	0.0000	0.0000;
	32	678	0.006	0.027	0.0044	167	556	210	0	0	1	0	0	15.6992	-3.5266	-15.6844	3.1356	0.0000	0.0000	0.0000	0.0000;
	33	140	0.00862	0.03565	0.0059	167	556	210	0	0	1	0	0	26.2371	-3.4295	-26.1793	3.0553	0.0000	0.0000	0.0000	0.0000;
	33	1469	0.01066	0.04408	0.0073	167	556	210	0	0	1	0	0	-29.7171	3.4295	29.8090	-3.8101	0.0000	0.0000	0.0000	0.0000;
	1178	34	0.00098	0.00404	0.00067	167	556	210	0	0	1	0	0	-5.8807	0.9656	5.8811	-1.0337	0.0000	0.0000	0.0000	0.0000;
	1179	34	0.00097	0.004	0.00066	167	556	210	0	0	1	0	0	11.8124	-1.0966	-11.8111	1.0337	0.0000	0.0000	0.0000	0.0000;
	35	36	0.00018	0.00076	0.00013	175	563	175	0	0	1	0	0	-51.7242	29.9227	51.7306	-29.9092	0.0000	0.0000	0.0000	0.0000;
	35	36	0.00018	0.00076	0.00013	175	563	175	0	0	1	0	0	-51.7242	29.9227	51.7306	-29.9092	0.0000	0.0000	0.0000	0.0000;
	35	191	0.01727	0.07139	0.01182	167	556	210	0	0	1	0	0	42.7772	3.7980	-42.4626	-3.6854	0.0000	0.0000	0.0000	0.0000;
	35	485	0.01865	0.07712	0.01277	116	556	145	0	0	1	0	0	25.8884	-22.8717	-25.6745	22.4438	0.0000	0.0000	0.0000	0.0000;
	35	485	0.01865	0.07712	0.01277	116	556	145	0	0	1	0	0	25.8884	-22.8717	-25.6745	22.4438	0.0000	0.0000	0.0000	0.0000;
	36	190	0.02914	0.1205	0.01995	167	556	210	0	0	1	0	0	-67.9620	21.0507	69.4281	-17.0067	0.0000	0.0000	0.0000	0.0000;
	36	192	0.00793	0.03281	0.00543	175	556	175	0	0	1	0	0	-44.0185	23.6810	44.2148	-23.4177	0.0000	0.0000	0.0000	0.0000;
	36	192	0.00793	0.03281	0.00543	175	556	175	0	0	1	0	0	-44.0185	23.6810	44.2148	-23.4177	0.0000	0.0000	0.0000	0.0000;
	490	36	0.0375	0.24	0.033	116	563	145	0	0	1	0	0	-16.5082	5.9753	16.6280	-8.5942	0.0000	0.0000	0.0000	0.0000;
	37	270	0.00261	0.01077	0.00178	167	556	210	0	0	1	0	0	107.3663	-0.0398	-107.0771	1.0484	0.0000	0.0000	0.0000	0.0000;
	37	270	0.00334	0.01382	0.00229	167	556	210	0	0	1	0	0	83.6837	-0.0257	-83.4589	0.7183	0.0000	0.0000	0.0000	0.0000;
	37	273	0.00153	0.00631	0.00104	167	556	210	0	0	1	0	0	1.7400	-0.1080	-1.7400	-0.0000	0.0000	0.0000	0.0000	0.0000;
	38	91	0.00853	0.03527	0.00584	167	556	210	0	0	1	0	0	-13.3379	4.0367	13.3541	-4.5773	0.0000	0.0000	0.0000	0.0000;
	38	97	0.01486	0.06145	0.01018	167	556	210	0	0	1	0	0	21.8579	1.2655	-21.7892	-2.0362	0.0000	0.0000	0.0000	0.0000;
	39	1307	0.00092	0.0074	0.02824	453	936	579	0	0	1	0	0	-24.7145	0.3991	24.7199	-3.2937	0.0000	0.0000	0.0000	0.0000;
	39	1469	0.00149	0.0623	0	326	369	423	1	0	1	0	0	32.7145	-3.1632	-32.6990	3.8101	0.0000	0.0000	0.0000	0.0000;
	779	40	0.00339	0.01403	0.00232	167	556	210	0	0	1	0	0	1.3701	-0.2409	-1.3700	0.0000	0.0000	0.0000	0.0000	0.0000;
	932	41	0.00025	0.00105	0.00017	167	556	210	0	0	1	0	0	-12.7532	4.0356	12.7536	-4.0512	0.0000	0.0000	0.0000	0.0000;
	933	41	0.0003	0.00123	0.0002	167	556	210	0	0	1	0	0	16.2344	-4.0685	-16.2336	4.0512	0.0000	0.0000	0.0000	0.0000;
	42	46	0.00072	0.00296	0.00049	167	556	210	0	0	1	0	0	5.2202	-0.1386	-5.2200	0.0880	0.0000	0.0000	0.0000	0.0000;
	1116	42	0.00378	0.01565	0.00259	167	556	210	0	0	1	0	0	-34.6432	3.5623	34.6870	-3.6524	0.0000	0.0000	0.0000	0.0000;
	1328	42	0.02099	0.08681	0.01438	167	556	210	0	0	1	0	0	-15.5507	0.1538	15.5995	-1.4569	0.0000	0.0000	0.0000	0.0000;
	1329	42	0.021	0.08682	0.01438	167	556	210	0	0	1	0	0	-15.5515	0.1551	15.6003	-1.4581	0.0000	0.0000	0.0000	0.0000;
	42	1330	0.00036	0.00149	0.00025	167	556	210	0	0	1	0	0	19.3762	-1.4925	-19.3749	1.4716	0.0000	0.0000	0.0000	0.0000;
	42	1576	0.00889	0.03675	0.00609	167	556	210	0	0	1	0	0	-51.2619	4.0986	51.4862	-3.8120	0.0000	0.0000	0.0000	0.0000;
	42	1576	0.00886	0.03666	0.00607	167	556	210	0	0	1	0	0	-51.3913	4.0998	51.6160	-3.8087	0.0000	0.0000	0.0000	0.0000;
	45	43	0.00052	0.00217	0.00036	167	556	210	0	0	1	0	0	5.4618	-0.7762	-5.4617	0.7391	0.0000	0.0000	0.0000	0.0000;
	1116	43	0.00609	0.02519	0.00417	167	556	210	0	0	1	0	0	-1.9814	0.3033	1.9817	-0.7391	0.0000	0.0000	0.0000	0.0000;
	45	44	0.00034	0.00142	0.00023	167	556	210	0	0	1	0	0	1.7400	-0.0241	-1.7400	-0.0000	0.0000	0.0000	0.0000	0.0000;
	45	1330	0.0088	0.03638	0.00602	167	556	210	0	0	1	0	0	-12.4118	0.8002	12.4249	-1.3774	0.0000	0.0000	0.0000	0.0000;
	46	1438	0.00123	0.00508	0.00084	167	556	210	0	0	1	0	0	1.7400	-0.0880	-1.7400	-0.0000	0.0000	0.0000	0.0000	0.0000;
	1106	47	0.01392	0.05755	0.00953	167	556	210	0	0	1	0	0	1.7404	-1.0005	-1.7400	0.0000	0.0000	0.0000	0.0000	0.0000;
	48	86	0.01054	0.04358	0.00722	167	556	210	0	0	1	0	0	0.2297	5.5901	-0.2261	-6.3291	0.0000	0.0000	0.0000	0.0000;
	1107	48	0.01145	0.04733	0.00784	167	556	210	0	0	1	0	0	-7.6997	6.7138	7.7116	-7.4869	0.0000	0.0000	0.0000	0.0000;
	48	1108	0.01146	0.0474	0.00785	167	556	210	0	0	1	0	0	7.7089	-7.4768	-7.6969	6.7027	0.0000	0.0000	0.0000	0.0000;
	48	1369	0.02381	0.09844	0.0163	167	556	210	0	0	1	0	0	-22.6003	9.3736	22.7402	-10.4940	0.0000	0.0000	0.0000	0.0000;
	1015	49	0.00233	0.00963	0.00159	167	556	210	0	0	1	0	0	1.9178	-0.5656	-1.9177	0.4009	0.0000	0.0000	0.0000	0.0000;
	1016	49	0.00231	0.00953	0.00158	167	556	210	0	0	1	0	0	0.8123	0.2369	-0.8123	-0.4009	0.0000	0.0000	0.0000	0.0000;
	50	412	0.00331	0.01367	0.00226	167	556	210	0	0	1	0	0	-1.4579	0.0192	1.4580	-0.2518	0.0000	0.0000	0.0000	0.0000;
	1031	50	0.00324	0.01342	0.00222	167	556	210	0	0	1	0	0	1.2721	-0.2094	-1.2721	-0.0192	0.0000	0.0000	0.0000	0.0000;
	51	131	0.00276	0.01143	0.00189	167	556	210	0	0	1	0	0	-2.9600	-0.0000	2.9602	-0.1954	0.0000	0.0000	0.0000	0.0000;
	52	131	0.01481	0.06124	0.01014	167	556	210	0	0	1	0	0	3.3270	-0.4200	-3.3254	-0.6279	0.0000	0.0000	0.0000	0.0000;
	53	152	0.03542	0.14646	0.02425	167	556	210	0	0	1	0	0	17.6128	-2.1504	-17.5069	0.0764	0.0000	0.0000	0.0000	0.0000;
	1565	53	0.0223	0.09221	0.01527	167	556	210	0	0	1	0	0	17.3219	-3.8004	-17.2558	2.4836	0.0000	0.0000	0.0000	0.0000;
	54	132	0.00359	0.02888	0.11019	453	936	579	0	0	1	0	0	-64.6560	22.3534	64.8254	-32.5480	0.0000	0.0000	0.0000	0.0000;
	1303	54	0.00498	0.04	0.15261	453	936	579	0	0	1	0	0	-64.4489	7.8820	64.6560	-22.3534	0.0000	0.0000	0.0000	0.0000;
	55	56	0.00881	0.03642	0.00603	167	556	210	0	0	1	0	0	19.0140	-4.4189	-18.9819	3.9252	0.0000	0.0000	0.0000	0.0000;
	124	55	0.03506	0.14498	0.02401	167	556	210	0	0	1	0	0	-1.5831	-1.0025	1.5840	-1.4875	0.0000	0.0000	0.0000	0.0000;
	56	57	0.01171	0.04844	0.00802	167	556	210	0	0	1	0	0	13.0519	-3.9252	-13.0313	3.1775	0.0000	0.0000	0.0000	0.0000;
	57	133	0.01248	0.05159	0.00854	167	556	210	0	0	1	0	0	7.1013	-3.1775	-7.0944	2.3186	0.0000	0.0000	0.0000	0.0000;
	58	353	0.00193	0.00799	0.00132	417	417	417	0	0	1	0	0	98.0202	-4.8273	-97.8411	5.4318	0.0000	0.0000	0.0000	0.0000;
	58	1552	0.00016	0.00068	0.00011	417	417	417	0	0	1	0	0	-102.4602	4.8273	102.4764	-4.7698	0.0000	0.0000	0.0000	0.0000;
	59	83	0.00638	0.02637	0.00437	167	556	210	0	0	1	0	0	-5.1455	3.5766	5.1480	-4.0221	0.0000	0.0000	0.0000	0.0000;
	59	83	0.00637	0.02632	0.00436	167	556	210	0	0	1	0	0	-5.1548	3.5847	5.1574	-4.0291	0.0000	0.0000	0.0000	0.0000;
	1027	59	0.00722	0.02987	0.00495	167	556	210	0	0	1	0	0	-73.1735	12.4956	73.5563	-11.4275	0.0000	0.0000	0.0000	0.0000;
	1028	59	0.00721	0.02982	0.00494	167	556	210	0	0	1	0	0	-73.2823	12.5180	73.6658	-11.4468	0.0000	0.0000	0.0000	0.0000;
	1040	59	0.0223	0.09222	0.01527	167	556	210	0	0	1	0	0	9.9343	-5.1850	-9.9090	3.6985	0.0000	0.0000	0.0000	0.0000;
	1041	59	0.0223	0.09221	0.01527	167	556	210	0	0	1	0	0	9.9186	-5.1821	-9.8934	3.6954	0.0000	0.0000	0.0000	0.0000;
	59	1220	0.00149	0.0623	0	325	325	325	0	0	1	0	0	-100.9713	1.7144	101.1169	4.3723	0.0000	0.0000	0.0000	0.0000;
	60	500	0.03202	0.0728	0.00142	96	250	123	0	0	1	0	0	-1.2438	-0.0400	1.2443	-0.1068	0.0000	0.0000	0.0000	0.0000;
	533	60	0.04755	0.10809	0.00211	96	250	123	0	0	1	0	0	-10.6103	0.0925	10.6623	-0.1928	0.0000	0.0000	0.0000	0.0000;
	1271	61	0.03583	0.14818	0.02454	167	556	210	0	0	1	0	0	51.2872	-15.2377	-50.2958	16.8177	0.0000	0.0000	0.0000	0.0000;
	61	1289	0.02422	0.10014	0.01658	167	556	210	0	0	1	0	0	20.3612	-8.2983	-20.2509	7.0378	0.0000	0.0000	0.0000	0.0000;
	61	1289	0.02343	0.09689	0.01604	167	556	210	0	0	1	0	0	21.0446	-8.5194	-20.9307	7.3300	0.0000	0.0000	0.0000	0.0000;
	63	62	0	5e-05	0.00123	1216	1216	1804	0	0	1	0	0	271.3480	-20.4398	-271.3480	20.3475	0.0000	0.0000	0.0000	0.0000;
	62	722	0.00025	0.00383	0.09893	1216	2454	1804	0	0	1	0	0	271.3480	-20.3475	-271.1706	12.7740	0.0000	0.0000	0.0000	0.0000;
	63	800	0.00024	0.00373	0.096	1216	1216	1804	0	0	1	0	0	382.2954	56.3031	-381.9496	-60.8868	0.0000	0.0000	0.0000	0.0000;
...